<?xml version="1.0" encoding="UTF-8"?>

<!-- generated on 2022-07-18 22:32:15 by Eclipse SUMO netconvert Version 1.13.0
<configuration xmlns:xsi="http://www.w3.org/2001/XMLSchema-instance" xsi:noNamespaceSchemaLocation="http://sumo.dlr.de/xsd/netconvertConfiguration.xsd">

    <input>
        <opendrive-files value="Weaving_segment.xodr"/>
    </input>

    <output>
        <output-file value="Weaving_segment.net.xml"/>
    </output>

    <processing>
        <geometry.max-grade.fix value="false"/>
    </processing>

    <tls_building>
        <tls.left-green.time value="0"/>
    </tls_building>

    <junctions>
        <rectangular-lane-cut value="true"/>
    </junctions>

    <report>
        <aggregate-warnings value="5"/>
    </report>

</configuration>
-->

<net version="1.9" junctionCornerDetail="5" rectangularLaneCut="true" limitTurnSpeed="5.50" xmlns:xsi="http://www.w3.org/2001/XMLSchema-instance" xsi:noNamespaceSchemaLocation="http://sumo.dlr.de/xsd/net_file.xsd">

    <location netOffset="-3801.68,555.44" convBoundary="0.00,0.00,1312.46,1364.19" origBoundary="0.000000,0.000000,0.000000,0.000000" projParameter="+proj=tmerc +lat_0=30.5993182797386 +lon_0=104.0186223219355 +k=1 +x_0=0 +y_0=0 +datum=WGS84 +units=m  +vunits=m +no_defs "/>

    <type id="bidirectional" priority="1" speed="1.39" disallow="pedestrian tram rail_urban rail rail_electric rail_fast ship" width="3.65"/>
    <type id="border" priority="0" speed="1.39" disallow="all" discard="1" width="0.10"/>
    <type id="driving" priority="1" speed="13.89" disallow="pedestrian tram rail_urban rail rail_electric rail_fast ship" width="3.65"/>
    <type id="entry" priority="1" speed="22.22" disallow="pedestrian tram rail_urban rail rail_electric rail_fast ship" width="3.65"/>
    <type id="exit" priority="1" speed="22.22" disallow="pedestrian tram rail_urban rail rail_electric rail_fast ship" width="3.65"/>
    <type id="median" priority="0" speed="1.39" disallow="all" discard="1" width="0.10"/>
    <type id="mwyEntry" priority="1" speed="22.22" allow="private emergency authority army vip passenger hov taxi bus coach delivery truck trailer motorcycle evehicle custom1 custom2" width="3.65"/>
    <type id="mwyExit" priority="1" speed="22.22" allow="private emergency authority army vip passenger hov taxi bus coach delivery truck trailer motorcycle evehicle custom1 custom2" width="3.65"/>
    <type id="none" priority="0" speed="1.39" disallow="all" discard="1" width="1.00"/>
    <type id="offRamp" priority="1" speed="22.22" allow="private emergency authority army vip passenger hov taxi bus coach delivery truck trailer motorcycle evehicle custom1 custom2" width="3.65"/>
    <type id="onRamp" priority="1" speed="22.22" allow="private emergency authority army vip passenger hov taxi bus coach delivery truck trailer motorcycle evehicle custom1 custom2" width="3.65"/>
    <type id="parking" priority="1" speed="1.39" disallow="pedestrian tram rail_urban rail rail_electric rail_fast ship" width="2.50"/>
    <type id="rail" priority="3" speed="33.33" allow="rail_urban rail rail_electric rail_fast" width="3.65"/>
    <type id="restricted" priority="0" speed="13.89" disallow="all" width="3.65"/>
    <type id="roadWorks" priority="0" speed="1.39" allow="authority" width="3.65"/>
    <type id="shoulder" priority="0" speed="1.39" disallow="all" discard="1" width="1.00"/>
    <type id="special1" priority="1" speed="22.22" allow="custom1" discard="1" width="3.65"/>
    <type id="special2" priority="1" speed="22.22" allow="custom2" discard="1" width="3.65"/>
    <type id="special3" priority="1" speed="22.22" allow="custom1 custom2" discard="1" width="3.65"/>
    <type id="stop" priority="1" speed="13.89" disallow="pedestrian tram rail_urban rail rail_electric rail_fast ship" width="3.65"/>
    <type id="tram" priority="2" speed="13.89" allow="tram" width="3.65"/>

    <edge id=":1020_0" function="internal">
        <lane id=":1020_0_0" index="0" disallow="pedestrian tram rail_urban rail rail_electric rail_fast ship" speed="9.76" length="21.66" width="3.50" shape="981.18,728.05 980.42,721.31 978.25,716.53 974.67,713.69 969.69,712.81"/>
    </edge>
    <edge id=":1020_1" function="internal">
        <lane id=":1020_1_0" index="0" disallow="pedestrian tram rail_urban rail rail_electric rail_fast ship" speed="17.88" length="40.30" width="3.50" shape="981.18,728.05 979.83,687.78,0.15"/>
    </edge>
    <edge id=":1020_2" function="internal">
        <lane id=":1020_2_0" index="0" disallow="pedestrian tram rail_urban rail rail_electric rail_fast ship" speed="10.90" length="27.31" width="3.50" shape="984.68,728.02 983.68,719.75 980.84,713.87 976.16,710.39 969.63,709.31"/>
    </edge>
    <edge id=":1020_3" function="internal">
        <lane id=":1020_3_0" index="0" disallow="pedestrian tram rail_urban rail rail_electric rail_fast ship" speed="17.88" length="40.30" width="3.50" shape="984.68,728.02 983.33,687.75,0.15"/>
        <lane id=":1020_3_1" index="1" disallow="pedestrian tram rail_urban rail rail_electric rail_fast ship" speed="17.88" length="40.30" width="3.50" shape="988.18,727.99 986.83,687.72,0.15"/>
    </edge>
    <edge id=":1020_5" function="internal">
        <lane id=":1020_5_0" index="0" disallow="pedestrian tram rail_urban rail rail_electric rail_fast ship" speed="7.97" length="13.91" width="3.50" shape="1004.51,716.83 1001.93,717.55 1000.09,719.64 999.01,723.09 998.68,727.91"/>
    </edge>
    <edge id=":1020_6" function="internal">
        <lane id=":1020_6_0" index="0" disallow="pedestrian tram rail_urban rail rail_electric rail_fast ship" speed="17.88" length="35.16" width="3.50" shape="1004.51,716.83 994.14,716.27 987.10,714.81 980.06,713.35 969.69,712.81"/>
        <lane id=":1020_6_1" index="1" disallow="pedestrian tram rail_urban rail rail_electric rail_fast ship" speed="17.88" length="35.16" width="3.50" shape="1004.46,713.33 994.09,712.77 987.05,711.31 980.00,709.85 969.63,709.31"/>
        <lane id=":1020_6_2" index="2" disallow="pedestrian tram rail_urban rail rail_electric rail_fast ship" speed="17.88" length="35.16" width="3.50" shape="1004.41,709.83 994.04,709.27 986.99,707.81 979.95,706.35 969.57,705.81"/>
        <lane id=":1020_6_3" index="3" disallow="pedestrian tram rail_urban rail rail_electric rail_fast ship" speed="17.88" length="35.16" width="3.50" shape="1004.36,706.33 993.98,705.77 986.94,704.31 979.89,702.85 969.52,702.31"/>
        <lane id=":1020_6_4" index="4" disallow="pedestrian tram rail_urban rail rail_electric rail_fast ship" speed="17.88" length="35.16" width="3.50" shape="1004.31,702.83 993.93,702.27 986.89,700.81 979.84,699.35 969.46,698.81"/>
    </edge>
    <edge id=":1020_11" function="internal">
        <lane id=":1020_11_0" index="0" disallow="pedestrian tram rail_urban rail rail_electric rail_fast ship" speed="17.88" length="40.30" width="3.50" shape="997.33,687.63,0.15 998.68,727.91"/>
        <lane id=":1020_11_1" index="1" disallow="pedestrian tram rail_urban rail rail_electric rail_fast ship" speed="17.88" length="40.30" width="3.50" shape="993.83,687.66,0.15 995.18,727.94"/>
        <lane id=":1020_11_2" index="2" disallow="pedestrian tram rail_urban rail rail_electric rail_fast ship" speed="17.88" length="40.30" width="3.50" shape="990.33,687.69,0.15 991.68,727.96"/>
    </edge>
    <edge id=":1020_14" function="internal">
        <lane id=":1020_14_0" index="0" disallow="pedestrian tram rail_urban rail rail_electric rail_fast ship" speed="10.75" length="26.18" width="3.50" shape="990.33,687.69,0.15 989.06,692.43,0.12 985.16,695.86,0.09 978.62,697.99,0.05 969.46,698.81"/>
    </edge>
    <edge id=":1077_0" function="internal">
        <lane id=":1077_0_0" index="0" disallow="pedestrian tram rail_urban rail rail_electric rail_fast ship" speed="17.88" length="53.66" width="3.75" shape="728.95,664.36,6.00 744.08,662.78,6.16 757.07,658.84,6.30 767.93,652.52,6.43 776.65,643.83,6.56"/>
    </edge>
    <edge id=":1077_1" function="internal">
        <lane id=":1077_1_0" index="0" disallow="pedestrian tram rail_urban rail rail_electric rail_fast ship" speed="17.88" length="61.88" width="3.00" shape="729.03,667.73,6.00 790.89,666.85,6.00"/>
        <lane id=":1077_1_1" index="1" disallow="pedestrian tram rail_urban rail rail_electric rail_fast ship" speed="17.88" length="61.88" width="3.25" shape="729.12,671.35,6.00 790.97,669.97,6.00"/>
        <lane id=":1077_1_2" index="2" disallow="pedestrian tram rail_urban rail rail_electric rail_fast ship" speed="17.88" length="61.88" width="3.50" shape="729.20,674.85,6.00 791.07,673.34,6.00"/>
        <lane id=":1077_1_3" index="3" disallow="pedestrian tram rail_urban rail rail_electric rail_fast ship" speed="17.88" length="61.88" width="3.50" shape="729.29,678.23,6.00 791.16,676.84,6.00"/>
    </edge>
    <edge id=":1101_0" function="internal">
        <lane id=":1101_0_0" index="0" disallow="pedestrian tram rail_urban rail rail_electric rail_fast ship" speed="17.88" length="54.36" width="3.50" shape="633.67,470.57,8.90 638.24,461.86,8.85 642.93,449.30,8.77 646.68,434.56,8.69 648.44,419.28,8.60"/>
        <lane id=":1101_0_1" index="1" disallow="pedestrian tram rail_urban rail rail_electric rail_fast ship" speed="17.88" length="54.36" width="3.50" shape="633.67,470.57,8.90 638.79,461.87,8.85 644.68,449.35,8.77 649.63,434.64,8.69 651.94,419.38,8.60"/>
    </edge>
    <edge id=":1101_2" function="internal">
        <lane id=":1101_2_0" index="0" disallow="pedestrian tram rail_urban rail rail_electric rail_fast ship" speed="17.88" length="48.95" width="3.50" shape="650.83,468.29,9.34 651.94,419.38,8.60"/>
        <lane id=":1101_2_1" index="1" disallow="pedestrian tram rail_urban rail rail_electric rail_fast ship" speed="17.88" length="48.95" width="3.75" shape="654.33,468.40,9.34 655.56,419.48,8.60"/>
        <lane id=":1101_2_2" index="2" disallow="pedestrian tram rail_urban rail rail_electric rail_fast ship" speed="17.88" length="48.95" width="3.50" shape="657.83,468.52,9.34 659.19,419.58,8.60"/>
    </edge>
    <edge id=":1126_0" function="internal">
        <lane id=":1126_0_0" index="0" disallow="pedestrian tram rail_urban rail rail_electric rail_fast ship" speed="17.88" length="19.96" width="3.50" shape="651.16,18.19 649.49,14.64 647.47,10.71 645.82,5.82 645.25,-0.61"/>
    </edge>
    <edge id=":1126_1" function="internal">
        <lane id=":1126_1_0" index="0" disallow="pedestrian tram rail_urban rail rail_electric rail_fast ship" speed="17.88" length="22.59" width="3.50" shape="641.08,21.87 641.75,-0.71"/>
        <lane id=":1126_1_1" index="1" disallow="pedestrian tram rail_urban rail rail_electric rail_fast ship" speed="17.88" length="22.59" width="3.50" shape="644.58,21.97 645.25,-0.61"/>
    </edge>
    <edge id=":1138_0" function="internal">
        <lane id=":1138_0_0" index="0" disallow="pedestrian tram rail_urban rail rail_electric rail_fast ship" speed="17.88" length="25.50" width="3.50" shape="979.41,561.02 979.25,535.53"/>
        <lane id=":1138_0_1" index="1" disallow="pedestrian tram rail_urban rail rail_electric rail_fast ship" speed="17.88" length="25.50" width="3.50" shape="982.91,561.01 982.75,535.51"/>
        <lane id=":1138_0_2" index="2" disallow="pedestrian tram rail_urban rail rail_electric rail_fast ship" speed="17.88" length="25.50" width="3.50" shape="986.41,561.00 986.25,535.49"/>
    </edge>
    <edge id=":1138_3" function="internal">
        <lane id=":1138_3_0" index="0" disallow="pedestrian tram rail_urban rail rail_electric rail_fast ship" speed="17.88" length="25.53" width="3.50" shape="996.75,535.44 996.91,560.98"/>
        <lane id=":1138_3_1" index="1" disallow="pedestrian tram rail_urban rail rail_electric rail_fast ship" speed="17.88" length="25.53" width="3.50" shape="993.25,535.46 993.41,560.99"/>
        <lane id=":1138_3_2" index="2" disallow="pedestrian tram rail_urban rail rail_electric rail_fast ship" speed="17.88" length="25.53" width="3.50" shape="989.75,535.47 989.91,561.00"/>
    </edge>
    <edge id=":114_0" function="internal">
        <lane id=":114_0_0" index="0" disallow="pedestrian tram rail_urban rail rail_electric rail_fast ship" speed="17.88" length="40.09" width="3.50" shape="299.03,244.86 298.00,284.94"/>
        <lane id=":114_0_1" index="1" disallow="pedestrian tram rail_urban rail rail_electric rail_fast ship" speed="17.88" length="40.09" width="3.50" shape="295.53,244.77 294.50,284.85"/>
        <lane id=":114_0_2" index="2" disallow="pedestrian tram rail_urban rail rail_electric rail_fast ship" speed="17.88" length="40.09" width="3.50" shape="292.03,244.68 291.00,284.76"/>
    </edge>
    <edge id=":114_3" function="internal">
        <lane id=":114_3_0" index="0" disallow="pedestrian tram rail_urban rail rail_electric rail_fast ship" speed="13.03" length="6.39" width="3.50" shape="292.03,244.68 291.01,250.99"/>
    </edge>
    <edge id=":114_12" function="internal">
        <lane id=":114_12_0" index="0" disallow="pedestrian tram rail_urban rail rail_electric rail_fast ship" speed="13.03" length="31.65" width="3.50" shape="291.01,250.99 290.34,255.14 285.88,262.66 278.64,267.25 268.64,268.90"/>
    </edge>
    <edge id=":114_4" function="internal">
        <lane id=":114_4_0" index="0" disallow="pedestrian tram rail_urban rail rail_electric rail_fast ship" speed="9.93" length="21.62" width="3.50" shape="268.48,258.40 274.06,257.45 278.09,254.80 280.58,250.46 281.53,244.41"/>
        <lane id=":114_4_1" index="1" disallow="pedestrian tram rail_urban rail rail_electric rail_fast ship" speed="11.06" length="27.09" width="3.50" shape="268.53,261.90 275.58,260.72 280.69,257.42 283.83,252.02 285.03,244.50"/>
    </edge>
    <edge id=":114_6" function="internal">
        <lane id=":114_6_0" index="0" disallow="pedestrian tram rail_urban rail rail_electric rail_fast ship" speed="11.97" length="34.03" width="3.50" shape="268.59,265.40 278.58,266.47 285.65,270.06 289.79,276.15 291.00,284.76"/>
    </edge>
    <edge id=":114_7" function="internal">
        <lane id=":114_7_0" index="0" disallow="pedestrian tram rail_urban rail rail_electric rail_fast ship" speed="8.52" length="16.62" width="3.50" shape="280.50,284.49 279.85,280.66 277.68,277.95 273.98,276.36 268.76,275.90"/>
    </edge>
    <edge id=":114_8" function="internal">
        <lane id=":114_8_0" index="0" disallow="pedestrian tram rail_urban rail rail_electric rail_fast ship" speed="17.88" length="40.09" width="3.50" shape="280.50,284.49 281.53,244.41"/>
    </edge>
    <edge id=":114_9" function="internal">
        <lane id=":114_9_0" index="0" disallow="pedestrian tram rail_urban rail rail_electric rail_fast ship" speed="9.80" length="4.86" width="3.50" shape="284.00,284.58 283.26,279.77"/>
    </edge>
    <edge id=":114_10" function="internal">
        <lane id=":114_10_0" index="0" disallow="pedestrian tram rail_urban rail rail_electric rail_fast ship" speed="17.88" length="40.09" width="3.50" shape="284.00,284.58 285.03,244.50"/>
        <lane id=":114_10_1" index="1" disallow="pedestrian tram rail_urban rail rail_electric rail_fast ship" speed="17.88" length="40.09" width="3.50" shape="287.50,284.67 288.53,244.59"/>
    </edge>
    <edge id=":114_13" function="internal">
        <lane id=":114_13_0" index="0" disallow="pedestrian tram rail_urban rail rail_electric rail_fast ship" speed="9.80" length="17.56" width="3.50" shape="283.26,279.77 283.16,279.16 280.33,275.32 275.51,273.07 268.70,272.40"/>
    </edge>
    <edge id=":1151_0" function="internal">
        <lane id=":1151_0_0" index="0" disallow="pedestrian tram rail_urban rail rail_electric rail_fast ship" speed="11.28" length="28.58" width="3.50" shape="978.75,443.29 977.33,437.79 973.15,433.81 966.21,431.33 956.50,430.37"/>
    </edge>
    <edge id=":1151_1" function="internal">
        <lane id=":1151_1_0" index="0" disallow="pedestrian tram rail_urban rail rail_electric rail_fast ship" speed="17.88" length="35.47" width="3.50" shape="978.75,443.29 978.55,407.82"/>
        <lane id=":1151_1_1" index="1" disallow="pedestrian tram rail_urban rail rail_electric rail_fast ship" speed="17.88" length="35.47" width="3.50" shape="982.25,443.27 982.05,407.81"/>
        <lane id=":1151_1_2" index="2" disallow="pedestrian tram rail_urban rail rail_electric rail_fast ship" speed="17.88" length="35.47" width="3.50" shape="985.75,443.26 985.55,407.79"/>
    </edge>
    <edge id=":1151_4" function="internal">
        <lane id=":1151_4_0" index="0" disallow="pedestrian tram rail_urban rail rail_electric rail_fast ship" speed="17.88" length="35.47" width="3.50" shape="996.05,407.73 996.25,443.20"/>
        <lane id=":1151_4_1" index="1" disallow="pedestrian tram rail_urban rail rail_electric rail_fast ship" speed="17.88" length="35.47" width="3.50" shape="992.55,407.75 992.75,443.22"/>
        <lane id=":1151_4_2" index="2" disallow="pedestrian tram rail_urban rail rail_electric rail_fast ship" speed="17.88" length="35.47" width="3.50" shape="989.05,407.77 989.25,443.24"/>
    </edge>
    <edge id=":1151_7" function="internal">
        <lane id=":1151_7_0" index="0" disallow="pedestrian tram rail_urban rail rail_electric rail_fast ship" speed="13.41" length="3.78" width="3.50" shape="989.05,407.77 988.20,411.45"/>
    </edge>
    <edge id=":1151_10" function="internal">
        <lane id=":1151_10_0" index="0" disallow="pedestrian tram rail_urban rail rail_electric rail_fast ship" speed="13.41" length="38.64" width="3.50" shape="988.20,411.45 987.06,416.35 980.99,422.40 970.82,425.91 956.57,426.87"/>
    </edge>
    <edge id=":1151_8" function="internal">
        <lane id=":1151_8_0" index="0" disallow="pedestrian tram rail_urban rail rail_electric rail_fast ship" speed="11.44" length="30.57" width="3.50" shape="956.63,423.37 966.26,422.55 973.12,419.69 977.22,414.78 978.55,407.82"/>
    </edge>
    <edge id=":1151_9" function="internal">
        <lane id=":1151_9_0" index="0" disallow="pedestrian tram rail_urban rail rail_electric rail_fast ship" speed="13.67" length="42.55" width="3.50" shape="956.63,423.37 970.86,424.84 981.04,428.64 987.17,434.77 989.25,443.24"/>
    </edge>
    <edge id=":1167_0" function="internal">
        <lane id=":1167_0_0" index="0" disallow="pedestrian tram rail_urban rail rail_electric rail_fast ship" speed="17.88" length="62.18" width="3.75" shape="916.09,691.28,5.76 897.80,694.01,5.97 881.34,700.53,6.16 868.09,708.21,6.33 859.43,714.44,6.45"/>
    </edge>
    <edge id=":1167_1" function="internal">
        <lane id=":1167_1_0" index="0" disallow="pedestrian tram rail_urban rail rail_electric rail_fast ship" speed="17.88" length="72.73" width="3.50" shape="916.09,691.28,5.76 843.51,692.69,6.00"/>
        <lane id=":1167_1_1" index="1" disallow="pedestrian tram rail_urban rail rail_electric rail_fast ship" speed="17.88" length="72.73" width="3.50" shape="916.10,687.78,5.76 843.43,689.19,6.00"/>
        <lane id=":1167_1_2" index="2" disallow="pedestrian tram rail_urban rail rail_electric rail_fast ship" speed="17.88" length="72.73" width="3.25" shape="916.11,684.41,5.76 843.34,685.82,6.00"/>
        <lane id=":1167_1_3" index="3" disallow="pedestrian tram rail_urban rail rail_electric rail_fast ship" speed="17.88" length="72.73" width="3.00" shape="916.11,681.28,5.76 843.27,682.69,6.00"/>
    </edge>
    <edge id=":12.begin_0" function="internal">
        <lane id=":12.begin_0_0" index="0" disallow="pedestrian tram rail_urban rail rail_electric rail_fast ship" speed="3.82" length="5.11" width="3.50" shape="0.73,974.02 -0.60,973.17 -1.05,972.30 -0.63,971.42 0.67,970.52"/>
    </edge>
    <edge id=":1203_0" function="internal">
        <lane id=":1203_0_0" index="0" disallow="pedestrian tram rail_urban rail rail_electric rail_fast ship" speed="17.88" length="30.42" width="3.50" shape="1082.67,639.04 1113.04,640.67"/>
        <lane id=":1203_0_1" index="1" disallow="pedestrian tram rail_urban rail rail_electric rail_fast ship" speed="17.88" length="30.42" width="3.50" shape="1082.71,642.54 1113.08,644.17"/>
        <lane id=":1203_0_2" index="2" disallow="pedestrian tram rail_urban rail rail_electric rail_fast ship" speed="17.88" length="30.42" width="3.50" shape="1082.75,646.04 1113.12,647.67"/>
        <lane id=":1203_0_3" index="3" disallow="pedestrian tram rail_urban rail rail_electric rail_fast ship" speed="17.88" length="30.42" width="3.50" shape="1082.79,649.54 1113.16,651.17"/>
    </edge>
    <edge id=":1221_0" function="internal">
        <lane id=":1221_0_0" index="0" disallow="pedestrian tram rail_urban rail rail_electric rail_fast ship" speed="17.88" length="32.87" width="2.93" shape="655.15,50.93,1.03 654.95,39.62,0.68 653.98,30.33,0.38 652.62,23.21,0.16 651.25,18.45"/>
    </edge>
    <edge id=":1221_1" function="internal">
        <lane id=":1221_1_0" index="0" disallow="pedestrian tram rail_urban rail rail_electric rail_fast ship" speed="17.88" length="33.78" width="3.50" shape="658.40,51.01,1.03 659.24,17.25,0.34"/>
        <lane id=":1221_1_1" index="1" disallow="pedestrian tram rail_urban rail rail_electric rail_fast ship" speed="17.88" length="33.78" width="3.50" shape="661.90,51.10,1.03 662.74,17.33,0.34"/>
        <lane id=":1221_1_2" index="2" disallow="pedestrian tram rail_urban rail rail_electric rail_fast ship" speed="17.88" length="33.78" width="3.75" shape="665.53,51.19,1.03 666.36,17.42,0.34"/>
        <lane id=":1221_1_3" index="3" disallow="pedestrian tram rail_urban rail rail_electric rail_fast ship" speed="17.88" length="33.78" width="3.50" shape="669.15,51.28,1.03 669.99,17.51,0.34"/>
    </edge>
    <edge id=":1231_0" function="internal">
        <lane id=":1231_0_0" index="0" disallow="pedestrian tram rail_urban rail rail_electric rail_fast ship" speed="17.88" length="42.10" width="3.50" shape="100.31,732.09 58.21,732.83"/>
        <lane id=":1231_0_1" index="1" disallow="pedestrian tram rail_urban rail rail_electric rail_fast ship" speed="17.88" length="42.10" width="3.50" shape="100.25,728.59 58.15,729.33"/>
        <lane id=":1231_0_2" index="2" disallow="pedestrian tram rail_urban rail rail_electric rail_fast ship" speed="17.88" length="42.10" width="3.50" shape="100.18,725.09 58.09,725.83"/>
    </edge>
    <edge id=":1231_3" function="internal">
        <lane id=":1231_3_0" index="0" disallow="pedestrian tram rail_urban rail rail_electric rail_fast ship" speed="17.88" length="24.28" width="3.25" shape="100.12,721.59 93.18,720.57 88.68,718.12 84.17,715.68 77.23,714.66"/>
    </edge>
    <edge id=":1231_4" function="internal">
        <lane id=":1231_4_0" index="0" disallow="pedestrian tram rail_urban rail rail_electric rail_fast ship" speed="17.88" length="52.58" width="3.50" shape="109.17,714.07 94.86,716.03 81.76,719.99 69.59,723.93 58.09,725.83"/>
    </edge>
    <edge id=":1231_5" function="internal">
        <lane id=":1231_5_0" index="0" disallow="pedestrian tram rail_urban rail rail_electric rail_fast ship" speed="17.88" length="31.94" width="3.25" shape="109.17,714.07 77.23,714.66"/>
        <lane id=":1231_5_1" index="1" disallow="pedestrian tram rail_urban rail rail_electric rail_fast ship" speed="17.88" length="31.94" width="3.25" shape="109.11,710.82 77.18,711.41"/>
        <lane id=":1231_5_2" index="2" disallow="pedestrian tram rail_urban rail rail_electric rail_fast ship" speed="17.88" length="31.94" width="3.25" shape="109.05,707.57 77.12,708.16"/>
        <lane id=":1231_5_3" index="3" disallow="pedestrian tram rail_urban rail rail_electric rail_fast ship" speed="17.88" length="31.94" width="3.25" shape="108.99,704.32 77.06,704.91"/>
    </edge>
    <edge id=":1247_0" function="internal">
        <lane id=":1247_0_0" index="0" disallow="pedestrian tram rail_urban rail rail_electric rail_fast ship" speed="17.88" length="42.43" width="3.50" shape="979.64,665.22,0.15 979.56,622.77"/>
        <lane id=":1247_0_1" index="1" disallow="pedestrian tram rail_urban rail rail_electric rail_fast ship" speed="17.88" length="42.43" width="3.50" shape="983.14,665.19,0.15 983.06,622.76"/>
        <lane id=":1247_0_2" index="2" disallow="pedestrian tram rail_urban rail rail_electric rail_fast ship" speed="17.88" length="42.43" width="3.50" shape="986.64,665.16,0.15 986.56,622.75"/>
    </edge>
    <edge id=":1247_3" function="internal">
        <lane id=":1247_3_0" index="0" disallow="pedestrian tram rail_urban rail rail_electric rail_fast ship" speed="10.71" length="26.11" width="3.50" shape="986.64,665.16,0.15 987.90,660.32,0.12 991.75,656.83,0.09 998.22,654.69,0.05 1007.28,653.90"/>
    </edge>
    <edge id=":1247_4" function="internal">
        <lane id=":1247_4_0" index="0" disallow="pedestrian tram rail_urban rail rail_electric rail_fast ship" speed="9.89" length="22.28" width="3.50" shape="997.06,622.73 997.70,630.28 999.59,635.66 1002.73,638.87 1007.12,639.90"/>
    </edge>
    <edge id=":1247_5" function="internal">
        <lane id=":1247_5_0" index="0" disallow="pedestrian tram rail_urban rail rail_electric rail_fast ship" speed="17.88" length="42.34" width="3.50" shape="997.06,622.73 997.14,665.07,0.15"/>
    </edge>
    <edge id=":1247_6" function="internal">
        <lane id=":1247_6_0" index="0" disallow="pedestrian tram rail_urban rail rail_electric rail_fast ship" speed="11.01" length="27.90" width="3.50" shape="993.56,622.74 994.42,631.84 996.98,638.31 1001.23,642.17 1007.16,643.40"/>
    </edge>
    <edge id=":1247_7" function="internal">
        <lane id=":1247_7_0" index="0" disallow="pedestrian tram rail_urban rail rail_electric rail_fast ship" speed="17.88" length="42.37" width="3.50" shape="993.56,622.74 993.64,665.10,0.15"/>
        <lane id=":1247_7_1" index="1" disallow="pedestrian tram rail_urban rail rail_electric rail_fast ship" speed="17.88" length="42.37" width="3.50" shape="990.06,622.75 990.14,665.13,0.15"/>
    </edge>
    <edge id=":1247_9" function="internal">
        <lane id=":1247_9_0" index="0" disallow="pedestrian tram rail_urban rail rail_electric rail_fast ship" speed="10.50" length="25.54" width="3.50" shape="966.25,640.85 972.09,639.83 976.25,636.47 978.74,630.79 979.56,622.77"/>
    </edge>
    <edge id=":1247_10" function="internal">
        <lane id=":1247_10_0" index="0" disallow="pedestrian tram rail_urban rail rail_electric rail_fast ship" speed="17.88" length="41.11" width="3.50" shape="966.25,640.85 1007.12,639.90"/>
        <lane id=":1247_10_1" index="1" disallow="pedestrian tram rail_urban rail rail_electric rail_fast ship" speed="17.88" length="41.11" width="3.50" shape="966.18,644.35 1007.16,643.40"/>
        <lane id=":1247_10_2" index="2" disallow="pedestrian tram rail_urban rail rail_electric rail_fast ship" speed="17.88" length="41.11" width="3.50" shape="966.10,647.85 1007.20,646.90"/>
        <lane id=":1247_10_3" index="3" disallow="pedestrian tram rail_urban rail rail_electric rail_fast ship" speed="17.88" length="41.11" width="3.50" shape="966.03,651.35 1007.24,650.40"/>
        <lane id=":1247_10_4" index="4" disallow="pedestrian tram rail_urban rail rail_electric rail_fast ship" speed="17.88" length="41.11" width="3.50" shape="965.96,654.85 1007.28,653.90"/>
    </edge>
    <edge id=":13.begin_0" function="internal">
        <lane id=":13.begin_0_0" index="0" disallow="pedestrian tram rail_urban rail rail_electric rail_fast ship" speed="3.82" length="5.11" width="3.50" shape="0.03,273.18 -1.30,272.33 -1.75,271.46 -1.33,270.58 -0.03,269.68"/>
    </edge>
    <edge id=":1300_0" function="internal">
        <lane id=":1300_0_0" index="0" disallow="pedestrian tram rail_urban rail rail_electric rail_fast ship" speed="13.92" length="45.43" width="3.50" shape="265.05,753.87 263.00,742.92 257.08,735.19 247.27,730.67 233.59,729.39"/>
        <lane id=":1300_0_1" index="1" disallow="pedestrian tram rail_urban rail rail_electric rail_fast ship" speed="14.75" length="51.11" width="3.50" shape="268.55,753.84 266.27,741.34 259.67,732.52 248.75,727.37 233.51,725.89"/>
        <lane id=":1300_0_2" index="2" disallow="pedestrian tram rail_urban rail rail_electric rail_fast ship" speed="15.53" length="56.79" width="3.50" shape="272.05,753.81 269.53,739.77 262.26,729.85 250.23,724.06 233.44,722.39"/>
    </edge>
    <edge id=":1300_3" function="internal">
        <lane id=":1300_3_0" index="0" disallow="pedestrian tram rail_urban rail rail_electric rail_fast ship" speed="12.80" length="37.47" width="3.50" shape="303.22,727.95 294.10,729.73 287.61,734.61 283.76,742.61 282.55,753.73"/>
        <lane id=":1300_3_1" index="1" disallow="pedestrian tram rail_urban rail rail_electric rail_fast ship" speed="13.24" length="40.21" width="3.50" shape="303.22,727.95 292.57,729.75 284.99,734.66 280.48,742.66 279.05,753.76"/>
        <lane id=":1300_3_2" index="2" disallow="pedestrian tram rail_urban rail rail_electric rail_fast ship" speed="13.69" length="43.02" width="3.50" shape="303.22,727.95 291.03,729.78 282.36,734.70 277.20,742.70 275.55,753.79"/>
    </edge>
    <edge id=":1300_6" function="internal">
        <lane id=":1300_6_0" index="0" disallow="pedestrian tram rail_urban rail rail_electric rail_fast ship" speed="17.88" length="69.65" width="3.50" shape="303.22,727.95 233.59,729.39"/>
        <lane id=":1300_6_1" index="1" disallow="pedestrian tram rail_urban rail rail_electric rail_fast ship" speed="17.88" length="69.65" width="3.50" shape="303.15,724.45 233.51,725.89"/>
        <lane id=":1300_6_2" index="2" disallow="pedestrian tram rail_urban rail rail_electric rail_fast ship" speed="17.88" length="69.65" width="3.50" shape="303.08,720.96 233.44,722.39"/>
        <lane id=":1300_6_3" index="3" disallow="pedestrian tram rail_urban rail rail_electric rail_fast ship" speed="17.88" length="69.65" width="3.50" shape="303.00,717.46 233.37,718.89"/>
    </edge>
    <edge id=":1338_0" function="internal">