<?xml version='1.0' encoding='utf-8'?>
<routes xmlns:xsi="http://www.w3.org/2001/XMLSchema-instance" xsi:noNamespaceSchemaLocation="http://sumo.dlr.de/xsd/routes_file.xsd">
    <vehicle id="0" depart="0.00" type="vehicle.volkswagen.t2">
        <route edges="16 -1 -25 -10" />
    </vehicle>
    <vehicle id="1" depart="6.00" type="vehicle.lincoln.mkz_2017">
        <route edges="-23 -12 18 17 16 -1 -2" />
    </vehicle>
    <vehicle id="2" depart="12.00" type="vehicle.audi.tt">
        <route edges="2 -25 9 -22 -23 -12 18" />
    </vehicle>
    <vehicle id="3" depart="18.00" type="vehicle.nissan.patrol">
        <route edges="4 22 21 2 1 0 -14" />
    </vehicle>
    <vehicle id="4" depart="24.00" type="vehicle.audi.tt">
        <route edges="-6 19 18 4 22 -9 -10" />
    </vehicle>
    <vehicle id="5" depart="30.00" type="vehicle.audi.a2">
        <route edges="-2 -21 -9 -10 16 0" />
    </vehicle>
    <vehicle id="6" depart="36.00" type="vehicle.ford.mustang">
        <route edges="-10 -17 -18 -19" />
    </vehicle>
    <vehicle id="7" depart="42.00" type="vehicle.chevrolet.impala">
        <route edges="16 -1 -25 9 21 2 1" />
    </vehicle>
    <vehicle id="8" depart="48.00" type="vehicle.audi.tt">
        <route edges="-2 -21 -22 -4 -18 12" />
    </vehicle>
    <vehicle id="9" depart="54.00" type="vehicle.volkswagen.t2">
        <route edges="23 22 -9 -10 16 -1" />
    </vehicle>
    <vehicle id="10" depart="60.00" type="vehicle.dodge.charger_police">
        <route edges="23 22 21 2 -25 9 -22 -23 -12 18" />
    </vehicle>
    <vehicle id="11" depart="66.00" type="vehicle.nissan.micra">
        <route edges="-25 -10 -17 -18" />
    </vehicle>
    <vehicle id="12" depart="72.00" type="vehicle.bmw.grandtourer">
        <route edges="7 19 18 17 16 -1 -25" />
    </vehicle>
    <vehicle id="13" depart="78.00" type="vehicle.bmw.grandtourer">
        <route edges="-14" />
    </vehicle>
    <vehicle id="14" depart="84.00" type="vehicle.audi.tt">
        <route edges="24 -12 -19 -7 14" />
    </vehicle>
    <vehicle id="15" depart="90.00" type="vehicle.bmw.grandtourer">
        <route edges="23 22 21 2" />
    </vehicle>
    <vehicle id="16" depart="96.00" type="vehicle.dodge.charger_police">
        <route edges="1 0 -14 7" />
    </vehicle>
    <vehicle id="17" depart="102.00" type="vehicle.mercedes.coupe">
        <route edges="-4 17 10" />
    </vehicle>
    <vehicle id="18" depart="108.00" type="vehicle.lincoln.mkz_2017">
        <route edges="24 -12 -19 -7 14" />
    </vehicle>
    <vehicle id="19" depart="114.00" type="vehicle.carlamotors.carlacola">
        <route edges="25 1 -16 -17 -18 12" />
    </vehicle>
    <vehicle id="20" depart="120.00" type="vehicle.audi.etron">
        <route edges="19 18 4 22 -9 -10" />
    </vehicle>
    <vehicle id="21" depart="126.00" type="vehicle.bmw.grandtourer">
        <route edges="-21 -22 -23" />
    </vehicle>
    <vehicle id="22" depart="132.00" type="vehicle.lincoln.mkz_2017">
        <route edges="-14 7 19 18 17 16 -1 -2 -21" />
    </vehicle>
    <vehicle id="23" depart="138.00" type="vehicle.jeep.wrangler_rubicon">
        <route edges="-16 10 9 -22 -23" />
    </vehicle>
    <vehicle id="24" depart="144.00" type="vehicle.bmw.grandtourer">
        <route edges="16 -1 -2 -3" />
    </vehicle>
    <vehicle id="25" depart="150.00" type="vehicle.toyota.prius">
        <route edges="-3 24 23 22 -9 25 -2" />
    </vehicle>
    <vehicle id="26" depart="156.00" type="vehicle.nissan.patrol">
        <route edges="-22 -4 -18 -19 6" />
    </vehicle>
    <vehicle id="27" depart="162.00" type="vehicle.dodge.charger_police">
        <route edges="16 -1 -25 -10 -17 -18 -19 -7 14" />
    </vehicle>
    <vehicle id="28" depart="168.00" type="vehicle.ford.mustang">
        <route edges="-18 12 23 22 21 2" />
    </vehicle>
    <vehicle id="29" depart="174.00" type="vehicle.mini.cooper_s">
        <route edges="-18 12 23 -4" />
    </vehicle>
    <vehicle id="30" depart="180.00" type="vehicle.carlamotors.carlacola">
        <route edges="9 21 2 -25 -10 16" />
    </vehicle>
    <vehicle id="31" depart="186.00" type="vehicle.micro.microlino">
        <route edges="10 9 -22 -23 -12 18" />
    </vehicle>
    <vehicle id="32" depart="192.00" type="vehicle.audi.etron">
        <route edges="24 23 22" />
    </vehicle>
    <vehicle id="33" depart="198.00" type="vehicle.jeep.wrangler_rubicon">
        <route edges="-21 -9 -10" />
    </vehicle>
    <vehicle id="34" depart="204.00" type="vehicle.tesla.model3">
        <route edges="-24 5 -21 -22" />
    </vehicle>
    <vehicle id="35" depart="210.00" type="vehicle.audi.a2">
        <route edges="-2 -21 -22 -4 -18 -19 6" />
    </vehicle>
    <vehicle id="36" depart="216.00" type="vehicle.citroen.c3">
        <route edges="4 -23 -24" />
    </vehicle>
    <vehicle id="37" depart="222.00" type="vehicle.dodge.charger_police">
        <route edges="17 10 9 -22 -4" />
    </vehicle>
    <vehicle id="38" depart="228.00" type="vehicle.bmw.grandtourer">
        <route edges="5 -21 -22 -23 -24 -6 -7 14 -8" />
    </vehicle>
    <vehicle id="39" depart="234.00" type="vehicle.ford.mustang">
        <route edges="-22 -23 -24 5 -21" />
    </vehicle>
    <vehicle id="40" depart="240.00" type="vehicle.tesla.model3">
        <route edges="10 9 -22" />
    </vehicle>
    <vehicle id="41" depart="246.00" type="vehicle.audi.tt">
        <route edges="12 23 22 -9 -10 -17 4" />
    </vehicle>
    <vehicle id="42" depart="252.00" type="vehicle.ford.mustang">
        <route edges="-4 17 16 -1 -2" />
    </vehicle>
    <vehicle id="43" depart="258.00" type="vehicle.ford.mustang">
        <route edges="9 21 2 1 0" />
    </vehicle>
    <vehicle id="44" depart="264.00" type="vehicle.nissan.patrol">
        <route edges="-14 7 6 24 23 22 -9 -10" />
    </vehicle>
    <vehicle id="45" depart="270.00" type="vehicle.volkswagen.t2">
        <route edges="-16 -17 4 22 -9 -10 16" />
    </vehicle>
    <vehicle id="46" depart="276.00" type="vehicle.tesla.model3">
        <route edges="22 21 -3 -6" />
    </vehicle>
    <vehicle id="47" depart="282.00" type="vehicle.volkswagen.t2">
        <route edges="-12 18 17 10 9 -22 -4" />
    </vehicle>
    <vehicle id="48" depart="288.00" type="vehicle.chevrolet.impala">
        <route edges="9 21 2 1" />
    </vehicle>
    <vehicle id="49" depart="294.00" type="vehicle.tesla.cybertruck">
        <route edges="7 19 18 17 10 25" />
    </vehicle>
    <vehicle id="50" depart="300.00" type="vehicle.mini.cooper_s">
        <route edges="-1 -2 -21 -22 -23 -24 -6 19" />
    </vehicle>
    <vehicle id="51" depart="306.00" type="vehicle.nissan.patrol">
        <route edges="18 17 10 25 1" />
    </vehicle>
    <vehicle id="52" depart="312.00" type="vehicle.mercedes.coupe">
        <route edges="-22 -4 17 16" />
    </vehicle>
    <vehicle id="53" depart="318.00" type="vehicle.audi.etron">
        <route edges="-16 -17 -18 -19 -7" />
    </vehicle>
    <vehicle id="54" depart="324.00" type="vehicle.micro.microlino">
        <route edges="-8 -16 10 25 1 0 -14 7" />
    </vehicle>
    <vehicle id="55" depart="330.00" type="vehicle.seat.leon">
        <route edges="4 22 21 2 -25 9 -22" />
    </vehicle>
    <vehicle id="56" depart="336.00" type="vehicle.audi.tt">
        <route edges="0 -14 7 6 24 -12 -19" />
    </vehicle>
    <vehicle id="57" depart="342.00" type="vehicle.citroen.c3">
        <route edges="5 -21 -9 25" />
    </vehicle>
    <vehicle id="58" depart="348.00" type="vehicle.nissan.patrol">
        <route edges="-23 -12 18 17 16" />
    </vehicle>
    <vehicle id="59" depart="354.00" type="vehicle.audi.a2">
        <route edges="14 -8 -16 -17 -18" />
    </vehicle>
    <vehicle id="60" depart="360.00" type="vehicle.bmw.grandtourer">
        <route edges="21 2 1" />
    </vehicle>
    <vehicle id="61" depart="366.00" type="vehicle.nissan.patrol">
        <route edges="22 21 2 1" />
    </vehicle>
    <vehicle id="62" depart="372.00" type="vehicle.micro.microlino">
        <route edges="-1 -2 -21 -22 -23 -24" />
    </vehicle>
    <vehicle id="63" depart="378.00" type="vehicle.mercedes.coupe">
        <route edges="-1 -25 -10 -17 -18 -19 6" />
    </vehicle>
    <vehicle id="64" depart="384.00" type="vehicle.audi.a2">
        <route edges="4 22 21 -3 24" />
    </vehicle>
    <vehicle id="65" depart="390.00" type="vehicle.tesla.cybertruck">
        <route edges="-24 5 -21 -22 -23 -12" />
    </vehicle>
    <vehicle id="66" depart="396.00" type="vehicle.chevrolet.impala">
        <route edges="4 -23 -12 -19 6" />
    </vehicle>
    <vehicle id="67" depart="402.00" type="vehicle.audi.etron">
        <route edges="-14 7 6 24 23 22 -9" />
    </vehicle>
    <vehicle id="68" depart="408.00" type="vehicle.mini.cooper_s">
        <route edges="-12 18 4 22 21" />
    </vehicle>
    <vehicle id="69" depart="414.00" type="vehicle.nissan.patrol">
        <route edges="21 2 1 -16 -17" />
    </vehicle>
    <vehicle id="70" depart="420.00" type="vehicle.seat.leon">
        <route edges="-9 25 1" />
    </vehicle>
    <vehicle id="71" depart="426.00" type="vehicle.jeep.wrangler_rubicon">
        <route edges="-22 -4 17 10 25" />
    </vehicle>
    <vehicle id="72" depart="432.00" type="vehicle.tesla.model3">
        <route edges="-6 19 18 17 16 -1 -2" />
    </vehicle>
    <vehicle id="73" depart="438.00" type="vehicle.jeep.wrangler_rubicon">
        <route edges="1 -16 10 9 21 2" />
    </vehicle>
    <vehicle id="74" depart="444.00" type="vehicle.nissan.patrol">
        <route edges="-2 -21 -22 -23 -24" />
    </vehicle>
    <vehicle id="75" depart="450.00" type="vehicle.ford.mustang">
        <route edges="9 21 2 -25 -10 16" />
    </vehicle>
    <vehicle id="76" depart="456.00" type="vehicle.dodge.charger_police">
        <route edges="-7 14 -8 -16 10 25 1 0" />
    </vehicle>
    <vehicle id="77" depart="462.00" type="vehicle.nissan.micra">
        <route edges="-16 10 25 -2" />
    </vehicle>
    <vehicle id="78" depart="468.00" type="vehicle.seat.leon">
        <route edges="-25 -10 -17 -18 12" />
    </vehicle>
    <vehicle id="79" depart="474.00" type="vehicle.audi.a2">
        <route edges="-21 -9 25 -2" />
    </vehicle>
    <vehicle id="80" depart="480.00" type="vehicle.carlamotors.carlacola">
        <route edges="-12 18 17 16" />
    </vehicle>
    <vehicle id="81" depart="486.00" type="vehicle.nissan.micra">
        <route edges="-21 -22 -23 -24 5" />
    </vehicle>
    <vehicle id="82" depart="492.00" type="vehicle.jeep.wrangler_rubicon">
        <route edges="25 -2 -21 -22 -23 -12" />
    </vehicle>
    <vehicle id="83" depart="498.00" type="vehicle.ford.mustang">
        <route edges="-21 -22 -4 17" />
    </vehicle>
    <vehicle id="84" depart="504.00" type="vehicle.tesla.cybertruck">
        <route edges="-2 -21 -9 -10 -17" />
    </vehicle>
    <vehicle id="85" depart="510.00" type="vehicle.micro.microlino">
        <route edges="6 24 -12 18 17 10" />
    </vehicle>
    <vehicle id="86" depart="516.00" type="vehicle.dodge.charger_police">
        <route edges="-8 -16 -17 4 22" />
    </vehicle>
    <vehicle id="87" depart="522.00" type="vehicle.ford.mustang">
        <route edges="23 -4 -18 -19" />
    </vehicle>
    <vehicle id="88" depart="528.00" type="vehicle.carlamotors.carlacola">
        <route edges="-14 7 6 24 -12 -19 -7" />
    </vehicle>
    <vehicle id="89" depart="534.00" type="vehicle.audi.a2">
        <route edges="-6 -7 14 -8" />
    </vehicle>
    <vehicle id="90" depart="540.00" type="vehicle.mini.cooper_s">
        <route edges="2 -25 9 -22 -4 17" />
    </vehicle>
    <vehicle id="91" depart="546.00" type="vehicle.volkswagen.t2">
        <route edges="9 21 2 1 0 -14" />
    </vehicle>
    <vehicle id="92" depart="552.00" type="vehicle.citroen.c3">
        <route edges="-6 19 18 17 16 -1 -25" />
    </vehicle>
    <vehicle id="93" depart="558.00" type="vehicle.dodge.charger_police">
        <route edges="25 -2 -21" />
    </vehicle>
    <vehicle id="94" depart="564.00" type="vehicle.carlamotors.carlacola">
        <route edges="-19 -7" />
    </vehicle>
    <vehicle id="95" depart="570.00" type="vehicle.chevrolet.impala">
        <route edges="-6 19 18 4 -23" />
    </vehicle>
    <vehicle id="96" depart="576.00" type="vehicle.jeep.wrangler_rubicon">
        <route edges="-21 -22 -23 -24 5" />
    </vehicle>
    <vehicle id="97" depart="582.00" type="vehicle.toyota.prius">
        <route edges="-7 14 -8 -16 10 25" />
    </vehicle>
    <vehicle id="98" depart="588.00" type="vehicle.jeep.wrangler_rubicon">
        <route edges="10 9 -22 -23 -12" />
    </vehicle>
    <vehicle id="99" depart="594.00" type="vehicle.tesla.cybertruck">
        <route edges="9 21 -3 24" />
    </vehicle>
    <vehicle id="100" depart="600.00" type="vehicle.nissan.patrol">
        <route edges="7 6" />
    </vehicle>
    <vehicle id="101" depart="606.00" type="vehicle.audi.etron">
        <route edges="24 23 -4 -18" />
    </vehicle>
    <vehicle id="102" depart="612.00" type="vehicle.seat.leon">
        <route edges="-9 25 -2" />
    </vehicle>
    <vehicle id="103" depart="618.00" type="vehicle.chevrolet.impala">
        <route edges="-6 19 18 4 -23 -12" />
    </vehicle>
    <vehicle id="104" depart="624.00" type="vehicle.carlamotors.carlacola">
        <route edges="-4 17 10 9" />
    </vehicle>
    <vehicle id="105" depart="630.00" type="vehicle.nissan.micra">
        <route edges="-22 -4 -18 12 23 22" />
    </vehicle>
    <vehicle id="106" depart="636.00" type="vehicle.seat.leon">
        <route edges="-8 -1 -2 -21 -22 -23 -24 -6" />
    </vehicle>
    <vehicle id="107" depart="642.00" type="vehicle.mini.cooper_s">
        <route edges="7 19 18 17 10 9" />
    </vehicle>
    <vehicle id="108" depart="648.00" type="vehicle.nissan.micra">
        <route edges="10 9 -22 -23 -24 -6 19" />
    </vehicle>
    <vehicle id="109" depart="654.00" type="vehicle.lincoln.mkz_2017">
        <route edges="-18 12 23 22 21 2 -25 9 -22 -23" />
    </vehicle>
    <vehicle id="110" depart="660.00" type="vehicle.nissan.micra">
        <route edges="7 19 12" />
    </vehicle>
    <vehicle id="111" depart="666.00" type="vehicle.citroen.c3">
        <route edges="1 -16 10 9 21 2" />
    </vehicle>
    <vehicle id="112" depart="672.00" type="vehicle.citroen.c3">
        <route edges="-12 18 17 16 0 -14 7 19 12" />
    </vehicle>
    <vehicle id="113" depart="678.00" type="vehicle.audi.a2">
        <route edges="0 -14 7 19 18 17 10 25" />
    </vehicle>
    <vehicle id="114" depart="684.00" type="vehicle.audi.tt">
        <route edges="-18 12 23 22 21 2 1 0 -14 7" />
    </vehicle>
    <vehicle id="115" depart="690.00" type="vehicle.ford.mustang">
        <route edges="-14 7 6 24 -12 -19" />
    </vehicle>
    <vehicle id="116" depart="696.00" type="vehicle.jeep.wrangler_rubicon">
        <route edges="12 -24 -6 19 18" />
    </vehicle>
    <vehicle id="117" depart="702.00" type="vehicle.tesla.model3">
        <route edges="-21 -9 25 1 -16" />
    </vehicle>
    <vehicle id="118" depart="708.00" type="vehicle.volkswagen.t2">
        <route edges="4 22 -9 25 -2 -21" />
    </vehicle>
    <vehicle id="119" depart="714.00" type="vehicle.volkswagen.t2">
        <route edges="12 -24 -6 -7 14" />
    </vehicle>
    <vehicle id="120" depart="720.00" type="vehicle.ford.mustang">
        <route edges="-6 19 12" />
    </vehicle>
    <vehicle id="121" depart="726.00" type="vehicle.mercedes.coupe">
        <route edges="0 -14 7 6" />
    </vehicle>
    <vehicle id="122" depart="732.00" type="vehicle.ford.mustang">
        <route edges="-2 -21 -22 -23 -24 -6 19" />
    </vehicle>
    <vehicle id="123" depart="738.00" type="vehicle.audi.tt">
        <route edges="-21 -22 -4" />
    </vehicle>
    <vehicle id="124" depart="744.00" type="vehicle.citroen.c3">
        <route edges="17 10 9 -22 -23" />
    </vehicle>
    <vehicle id="125" depart="750.00" type="vehicle.mini.cooper_s">
        <route edges="-24 5 2 -25 9 21" />
    </vehicle>
    <vehicle id="126" depart="756.00" type="vehicle.nissan.patrol">
        <route edges="-12 -19 -7 14 -8" />
    </vehicle>
    <vehicle id="127" depart="762.00" type="vehicle.audi.etron">
        <route edges="9" />
    </vehicle>
    <vehicle id="128" depart="768.00" type="vehicle.tesla.model3">
        <route edges="-12 18 17 16 -1 -2" />
    </vehicle>
    <vehicle id="129" depart="774.00" type="vehicle.tesla.cybertruck">
        <route edges="-22 -4 -18 -19 6" />
    </vehicle>
    <vehicle id="130" depart="780.00" type="vehicle.citroen.c3">
        <route edges="4" />
    </vehicle>
    <vehicle id="131" depart="786.00" type="vehicle.carlamotors.carlacola">
        <route edges="-3 24 23 -4 -18" />
    </vehicle>
    <vehicle id="132" depart="792.00" type="vehicle.mini.cooper_s">
        <route edges="24 23 22 21 2 1 0 -14 7 19" />
    </vehicle>
    <vehicle id="133" depart="798.00" type="vehicle.bmw.grandtourer">
        <route edges="14 -8 -16 10 9" />
    </vehicle>
    <vehicle id="134" depart="804.00" type="vehicle.nissan.patrol">
        <route edges="17 16 -1" />
    </vehicle>
    <vehicle id="135" depart="810.00" type="vehicle.volkswagen.t2">
        <route edges="23 22 21 2 -25 9 -22 -23" />
    </vehicle>
    <vehicle id="136" depart="816.00" type="vehicle.audi.a2">
        <route edges="17 16 0 -14 7 6" />
    </vehicle>
    <vehicle id="137" depart="822.00" type="vehicle.toyota.prius">
        <route edges="-17 4 22 21 2 1 -16" />
    </vehicle>
    <vehicle id="138" depart="828.00" type="vehicle.micro.microlino">
        <route edges="-16 10" />
    </vehicle>
    <vehicle id="139" depart="834.00" type="vehicle.seat.leon">
        <route edges="-22 -23 -24 -6 -7 14" />
    </vehicle>
    <vehicle id="140" depart="840.00" type="vehicle.tesla.model3">
        <route edges="19 18 17 16 -1 -2" />
    </vehicle>
    <vehicle id="141" depart="846.00" type="vehicle.mercedes.coupe">
        <route edges="16 -1 -2 -21 -22" />
    </vehicle>
    <vehicle id="142" depart="852.00" type="vehicle.lincoln.mkz_2017">
        <route edges="-9 25 -2 -21 -22 -23 -24 5" />
    </vehicle>
    <vehicle id="143" depart="858.00" type="vehicle.jeep.wrangler_rubicon">
        <route edges="24 23 22 21 2 1 0 -14" />
    </vehicle>
    <vehicle id="144" depart="864.00" type="vehicle.nissan.micra">
        <route edges="-6 19 18 4 -23" />
    </vehicle>
    <vehicle id="145" depart="870.00" type="vehicle.audi.etron">
        <route edges="-1 -25 9 21" />
    </vehicle>
    <vehicle id="146" depart="876.00" type="vehicle.audi.etron">
        <route edges="16 -1 -2 -21 -22" />
    </vehicle>
    <vehicle id="147" depart="882.00" type="vehicle.mini.cooper_s">
        <route edges="2 1 -16 10" />
    </vehicle>
    <vehicle id="148" depart="888.00" type="vehicle.mini.cooper_s">
        <route edges="-7 14 -8 -1" />
    </vehicle>
    <vehicle id="149" depart="894.00" type="vehicle.seat.leon">
        <route edges="-14 7 19 18 4" />
    </vehicle>
    <vehicle id="150" depart="900.00" type="vehicle.toyota.prius">
        <route edges="5 2 1" />
    </vehicle>
    <vehicle id="151" depart="906.00" type="vehicle.audi.a2">
        <route edges="24 23 -4 -18 12" />
    </vehicle>
    <vehicle id="152" depart="912.00" type="vehicle.mercedes.coupe">
        <route edges="-17" />
    </vehicle>
    <vehicle id="153" depart="918.00" type="vehicle.tesla.cybertruck">
        <route edges="-24 -6 19 18 4" />
    </vehicle>
    <vehicle id="154" depart="924.00" type="vehicle.seat.leon">
        <route edges="22 -9 25" />
    </vehicle>
    <vehicle id="155" depart="930.00" type="vehicle.volkswagen.t2">
        <route edges="4 22 -9 25 -2" />
    </vehicle>
    <vehicle id="156" depart="936.00" type="vehicle.bmw.grandtourer">
        <route edges="-21 -9 25 1 -16" />
    </vehicle>
    <vehicle id="157" depart="942.00" type="vehicle.jeep.wrangler_rubicon">
        <route edges="22 -9 -10 -17 4" />
    </vehicle>
    <vehicle id="158" depart="948.00" type="vehicle.dodge.charger_police">
        <route edges="-6 -7 14" />
    </vehicle>
    <vehicle id="159" depart="954.00" type="vehicle.audi.etron">
        <route edges="-18 -19 6" />
    </vehicle>
    <vehicle id="160" depart="960.00" type="vehicle.dodge.charger_police">
        <route edges="25 1 -16 10 9" />
    </vehicle>
    <vehicle id="161" depart="966.00" type="vehicle.lincoln.mkz_2017">
        <route edges="23 22 -9 -10 -17 4" />
    </vehicle>
    <vehicle id="162" depart="972.00" type="vehicle.mini.cooper_s">
        <route edges="-1 -25 9 21 2" />
    </vehicle>
    <vehicle id="163" depart="978.00" type="vehicle.tesla.model3">
        <route edges="-25 -10 -17 -18 -19 6" />
    </vehicle>
    <vehicle id="164" depart="984.00" type="vehicle.chevrolet.impala">
        <route edges="23 22 -9 25" />
    </vehicle>
    <vehicle id="165" depart="990.00" type="vehicle.micro.microlino">
        <route edges="23 22 21 2 -25 9 -22" />
    </vehicle>
    <vehicle id="166" depart="996.00" type="vehicle.jeep.wrangler_rubicon">
        <route edges="22 21 2 1 -16" />
    </vehicle>
    <vehicle id="167" depart="1002.00" type="vehicle.seat.leon">
        <route edges="25" />
    </vehicle>
    <vehicle id="168" depart="1008.00" type="vehicle.audi.etron">
        <route edges="-2 -3 24 23" />
    </vehicle>
    <vehicle id="169" depart="1014.00" type="vehicle.bmw.grandtourer">
        <route edges="-8 -1 -2 -21 -22 -23 -24" />
    </vehicle>
    <vehicle id="170" depart="1020.00" type="vehicle.seat.leon">
        <route edges="22 -9 25 -2 -21" />
    </vehicle>
    <vehicle id="171" depart="1026.00" type="vehicle.lincoln.mkz_2017">
        <route edges="-1 -25 -10 -17 -18 -19" />
    </vehicle>
    <vehicle id="172" depart="1032.00" type="vehicle.carlamotors.carlacola">
        <route edges="-25 9 21 2 1 -16 10 25" />
    </vehicle>
    <vehicle id="173" depart="1038.00" type="vehicle.carlamotors.carlacola">
        <route edges="7 19 18 4 -23" />
    </vehicle>
    <vehicle id="174" depart="1044.00" type="vehicle.audi.etron">
        <route edges="16 -1 -2 -21 -22 -4" />
    </vehicle>
    <vehicle id="175" depart="1050.00" type="vehicle.chevrolet.impala">
        <route edges="9 21 2 1" />
    </vehicle>
    <vehicle id="176" depart="1056.00" type="vehicle.dodge.charger_police">
        <route edges="6 24 23 22 21 2 1 -16" />
    </vehicle>
    <vehicle id="177" depart="1062.00" type="vehicle.nissan.micra">
        <route edges="7 6 24 -12 -19" />
    </vehicle>
    <vehicle id="178" depart="1068.00" type="vehicle.audi.etron">
        <route edges="7 19 18 17 10 9 -22" />
    </vehicle>
    <vehicle id="179" depart="1074.00" type="vehicle.seat.leon">
        <route edges="-16 -17 -18 -19 -7" />
    </vehicle>
    <vehicle id="180" depart="1080.00" type="vehicle.nissan.patrol">
        <route edges="2 -25 9 -22 -23 -24" />
    </vehicle>
    <vehicle id="181" depart="1086.00" type="vehicle.volkswagen.t2">
        <route edges="14 -8 -16 10 25 1 0" />
    </vehicle>
    <vehicle id="182" depart="1092.00" type="vehicle.mercedes.coupe">
        <route edges="-4 -18 12" />
    </vehicle>
    <vehicle id="183" depart="1098.00" type="vehicle.audi.a2">
        <route edges="-22 -23 -24 -6 19" />
    </vehicle>
    <vehicle id="184" depart="1104.00" type="vehicle.tesla.cybertruck">
        <route edges="-1 -25 -10 -17 -18 -19 6" />
    </vehicle>
    <vehicle id="185" depart="1110.00" type="vehicle.dodge.charger_police">
        <route edges="1 0 -14 7 19" />
    </vehicle>
    <vehicle id="186" depart="1116.00" type="vehicle.tesla.model3">
        <route edges="2 -25 9 -22 -4 17" />
    </vehicle>
    <vehicle id="187" depart="1122.00" type="vehicle.ford.mustang">
        <route edges="-3 24 -12" />
    </vehicle>
    <vehicle id="188" depart="1128.00" type="vehicle.carlamotors.carlacola">
        <route edges="17 16 -1 -25" />
    </vehicle>
    <vehicle id="189" depart="1134.00" type="vehicle.jeep.wrangler_rubicon">
        <route edges="-24 -6 19 18 17 16 0 -14 7 6 24" />
    </vehicle>
    <vehicle id="190" depart="1140.00" type="vehicle.citroen.c3">
        <route edges="19 12 -24" />
    </vehicle>
    <vehicle id="191" depart="1146.00" type="vehicle.tesla.model3">
        <route edges="-24 -6" />
    </vehicle>
    <vehicle id="192" depart="1152.00" type="vehicle.micro.microlino">
        <route edges="-6 19 18 4 -23" />
    </vehicle>
    <vehicle id="193" depart="1158.00" type="vehicle.chevrolet.impala">
        <route edges="-17 -18 12 -24 -6" />
    </vehicle>
    <vehicle id="194" depart="1164.00" type="vehicle.dodge.charger_police">
        <route edges="6 24 -12 18" />
    </vehicle>
    <vehicle id="195" depart="1170.00" type="vehicle.micro.microlino">
        <route edges="5 -21 -22 -23 -24 -6 -7 14" />
    </vehicle>
    <vehicle id="196" depart="1176.00" type="vehicle.seat.leon">
        <route edges="-24 5 2 1" />
    </vehicle>
    <vehicle id="197" depart="1182.00" type="vehicle.dodge.charger_police">
        <route edges="-1 -2 -21 -22 -23" />
    </vehicle>
    <vehicle id="198" depart="1188.00" type="vehicle.toyota.prius">
        <route edges="-7 14 -8 -16 -17 -18 12" />
    </vehicle>
    <vehicle id="199" depart="1194.00" type="vehicle.tesla.model3">
        <route edges="17 10 25 1 -16 -17 -18 -19 -7 14 -8" />
    </vehicle>
    <vehicle id="200" depart="1200.00" type="vehicle.volkswagen.t2">
        <route edges="-7 14 -8 -1 -2" />
    </vehicle>
    <vehicle id="201" depart="1206.00" type="vehicle.audi.tt">
        <route edges="-8 -1 -2 -21 -22 -23 -24 5" />
    </vehicle>
    <vehicle id="202" depart="1212.00" type="vehicle.audi.a2">
        <route edges="22 -9 -10 -17 -18" />
    </vehicle>
    <vehicle id="203" depart="1218.00" type="vehicle.volkswagen.t2">
        <route edges="-14 7 19 18 17 16 0" />
    </vehicle>
    <vehicle id="204" depart="1224.00" type="vehicle.volkswagen.t2">
        <route edges="16 -1 -25" />
    </vehicle>
    <vehicle id="205" depart="1230.00" type="vehicle.carlamotors.carlacola">
        <route edges="23 22 21" />
    </vehicle>
    <vehicle id="206" depart="1236.00" type="vehicle.mini.cooper_s">
        <route edges="17 16 -1 -2" />
    </vehicle>
    <vehicle id="207" depart="1242.00" type="vehicle.dodge.charger_police">
        <route edges="-19 -7 14 -8 -1" />
    </vehicle>
    <vehicle id="208" depart="1248.00" type="vehicle.carlamotors.carlacola">
        <route edges="-21 -9" />
    </vehicle>
    <vehicle id="209" depart="1254.00" type="vehicle.volkswagen.t2">
        <route edges="24 -12" />
    </vehicle>
    <vehicle id="210" depart="1260.00" type="vehicle.seat.leon">
        <route edges="-6 19 18 17 16" />
    </vehicle>
    <vehicle id="211" depart="1266.00" type="vehicle.chevrolet.impala">
        <route edges="-19 6 24 -12 18" />
    </vehicle>
    <vehicle id="212" depart="1272.00" type="vehicle.nissan.micra">
        <route edges="-9 25 -2 -21" />
    </vehicle>
    <vehicle id="213" depart="1278.00" type="vehicle.citroen.c3">
        <route edges="17 16 -1" />
    </vehicle>
    <vehicle id="214" depart="1284.00" type="vehicle.audi.a2">
        <route edges="21" />
    </vehicle>
    <vehicle id="215" depart="1290.00" type="vehicle.mercedes.coupe">
        <route edges="-16 -17 -18 -19 -7" />
    </vehicle>
    <vehicle id="216" depart="1296.00" type="vehicle.ford.mustang">
        <route edges="-19 6 24 23 22 21 2 1 0 -14 7" />
    </vehicle>
    <vehicle id="217" depart="1302.00" type="vehicle.toyota.prius">
        <route edges="0 -14 7 6 24 -12" />
    </vehicle>
    <vehicle id="218" depart="1308.00" type="vehicle.seat.leon">
        <route edges="-21 -22 -4 -18 -19 6 24" />
    </vehicle>
    <vehicle id="219" depart="1314.00" type="vehicle.ford.mustang">
        <route edges="-8 -16 -17 -18 12 23" />
    </vehicle>
    <vehicle id="220" depart="1320.00" type="vehicle.toyota.prius">
        <route edges="17 10 9" />
    </vehicle>
    <vehicle id="221" depart="1326.00" type="vehicle.volkswagen.t2">
        <route edges="12 23 22 21 2 1 0 -14 7" />
    </vehicle>
    <vehicle id="222" depart="1332.00" type="vehicle.dodge.charger_police">
        <route edges="4 -23 -24 -6 -7 14" />
    </vehicle>
    <vehicle id="223" depart="1338.00" type="vehicle.citroen.c3">
        <route edges="19 18 17 16 0" />
    </vehicle>
    <vehicle id="224" depart="1344.00" type="vehicle.audi.a2">
        <route edges="24 23 22 21 2 1" />
    </vehicle>
    <vehicle id="225" depart="1350.00" type="vehicle.citroen.c3">
        <route edges="4 22 21 2" />
    </vehicle>
    <vehicle id="226" depart="1356.00" type="vehicle.tesla.model3">
        <route edges="-8 -1 -2 -21 -22" />
    </vehicle>
    <vehicle id="227" depart="1362.00" type="vehicle.nissan.patrol">
        <route edges="-21 -9 -10 16" />
    </vehicle>
    <vehicle id="228" depart="1368.00" type="vehicle.audi.tt">
        <route edges="21 2 1 0" />
    </vehicle>
    <vehicle id="229" depart="1374.00" type="vehicle.audi.tt">
        <route edges="16 -1 -2 -21 -22" />
    </vehicle>
    <vehicle id="230" depart="1380.00" type="vehicle.ford.mustang">
        <route edges="-14 7 19 18 4 -23" />
    </vehicle>
    <vehicle id="231" depart="1386.00" type="vehicle.toyota.prius">
        <route edges="-22 -23 -24" />
    </vehicle>
    <vehicle id="232" depart="1392.00" type="vehicle.toyota.prius">
        <route edges="1 -16 -17" />
    </vehicle>
    <vehicle id="233" depart="1398.00" type="vehicle.mercedes.coupe">
        <route edges="-21 -22 -23 -12 18" />
    </vehicle>
    <vehicle id="234" depart="1404.00" type="vehicle.mercedes.coupe">
        <route edges="19 18 4 -23 -12" />
    </vehicle>
    <vehicle id="235" depart="1410.00" type="vehicle.volkswagen.t2">
        <route edges="-6 19 18 17 10 25 1" />
    </vehicle>
    <vehicle id="236" depart="1416.00" type="vehicle.volkswagen.t2">
        <route edges="-6 19 18 17 16 -1 -2" />
    </vehicle>