<?xml version="1.0" encoding="UTF-8"?>

<!-- generated on 2024-04-11 10:16:11.034970 by randomTrips.py UNKNOWN
<configuration>
    <net-file value="Town01.net.xml"/>
    <route-file value="output.rou.xml"/>
    <period value="6.0"/>
</configuration>
-->

<routes xmlns:xsi="http://www.w3.org/2001/XMLSchema-instance" xsi:noNamespaceSchemaLocation="http://sumo.dlr.de/xsd/routes_file.xsd">
    <trip id="0" depart="0.00" from="16" to="-10"/>
    <trip id="1" depart="6.00" from="-23" to="-2"/>
    <trip id="2" depart="12.00" from="2" to="18"/>
    <trip id="3" depart="18.00" from="4" to="-14"/>
    <trip id="4" depart="24.00" from="-6" to="-10"/>
    <trip id="5" depart="30.00" from="-2" to="0"/>
    <trip id="6" depart="36.00" from="-10" to="-19"/>
    <trip id="7" depart="42.00" from="16" to="1"/>
    <trip id="8" depart="48.00" from="-2" to="12"/>
    <trip id="9" depart="54.00" from="23" to="-1"/>
    <trip id="10" depart="60.00" from="23" to="18"/>
    <trip id="11" depart="66.00" from="-25" to="-18"/>
    <trip id="12" depart="72.00" from="7" to="-25"/>
    <trip id="13" depart="78.00" from="-14" to="-14"/>
    <trip id="14" depart="84.00" from="24" to="14"/>
    <trip id="15" depart="90.00" from="23" to="2"/>
    <trip id="16" depart="96.00" from="1" to="7"/>
    <trip id="17" depart="102.00" from="-4" to="10"/>
    <trip id="18" depart="108.00" from="24" to="14"/>
    <trip id="19" depart="114.00" from="25" to="12"/>
    <trip id="20" depart="120.00" from="19" to="-10"/>
    <trip id="21" depart="126.00" from="-21" to="-23"/>
    <trip id="22" depart="132.00" from="-14" to="-21"/>
    <trip id="23" depart="138.00" from="-16" to="-23"/>
    <trip id="24" depart="144.00" from="16" to="-3"/>
    <trip id="25" depart="150.00" from="-3" to="-2"/>
    <trip id="26" depart="156.00" from="-22" to="6"/>
    <trip id="27" depart="162.00" from="16" to="14"/>
    <trip id="28" depart="168.00" from="-18" to="2"/>
    <trip id="29" depart="174.00" from="-18" to="-4"/>
    <trip id="30" depart="180.00" from="9" to="16"/>
    <trip id="31" depart="186.00" from="10" to="18"/>
    <trip id="32" depart="192.00" from="24" to="22"/>
    <trip id="33" depart="198.00" from="-21" to="-10"/>
    <trip id="34" depart="204.00" from="-24" to="-22"/>
    <trip id="35" depart="210.00" from="-2" to="6"/>
    <trip id="36" depart="216.00" from="4" to="-24"/>
    <trip id="37" depart="222.00" from="17" to="-4"/>
    <trip id="38" depart="228.00" from="5" to="-8"/>
    <trip id="39" depart="234.00" from="-22" to="-21"/>
    <trip id="40" depart="240.00" from="10" to="-22"/>
    <trip id="41" depart="246.00" from="12" to="4"/>
    <trip id="42" depart="252.00" from="-4" to="-2"/>
    <trip id="43" depart="258.00" from="9" to="0"/>
    <trip id="44" depart="264.00" from="-14" to="-10"/>
    <trip id="45" depart="270.00" from="-16" to="16"/>
    <trip id="46" depart="276.00" from="22" to="-6"/>
    <trip id="47" depart="282.00" from="-12" to="-4"/>
    <trip id="48" depart="288.00" from="9" to="1"/>
    <trip id="49" depart="294.00" from="7" to="25"/>
    <trip id="50" depart="300.00" from="-1" to="19"/>
    <trip id="51" depart="306.00" from="18" to="1"/>
    <trip id="52" depart="312.00" from="-22" to="16"/>
    <trip id="53" depart="318.00" from="-16" to="-7"/>
    <trip id="54" depart="324.00" from="-8" to="7"/>
    <trip id="55" depart="330.00" from="4" to="-22"/>
    <trip id="56" depart="336.00" from="0" to="-19"/>
    <trip id="57" depart="342.00" from="5" to="25"/>
    <trip id="58" depart="348.00" from="-23" to="16"/>
    <trip id="59" depart="354.00" from="14" to="-18"/>
    <trip id="60" depart="360.00" from="21" to="1"/>
    <trip id="61" depart="366.00" from="22" to="1"/>
    <trip id="62" depart="372.00" from="-1" to="-24"/>
    <trip id="63" depart="378.00" from="-1" to="6"/>
    <trip id="64" depart="384.00" from="4" to="24"/>
    <trip id="65" depart="390.00" from="-24" to="-12"/>
    <trip id="66" depart="396.00" from="4" to="6"/>
    <trip id="67" depart="402.00" from="-14" to="-9"/>
    <trip id="68" depart="408.00" from="-12" to="21"/>
    <trip id="69" depart="414.00" from="21" to="-17"/>
    <trip id="70" depart="420.00" from="-9" to="1"/>
    <trip id="71" depart="426.00" from="-22" to="25"/>
    <trip id="72" depart="432.00" from="-6" to="-2"/>
    <trip id="73" depart="438.00" from="1" to="2"/>
    <trip id="74" depart="444.00" from="-2" to="-24"/>
    <trip id="75" depart="450.00" from="9" to="16"/>
    <trip id="76" depart="456.00" from="-7" to="0"/>
    <trip id="77" depart="462.00" from="-16" to="-2"/>
    <trip id="78" depart="468.00" from="-25" to="12"/>
    <trip id="79" depart="474.00" from="-21" to="-2"/>
    <trip id="80" depart="480.00" from="-12" to="16"/>
    <trip id="81" depart="486.00" from="-21" to="5"/>
    <trip id="82" depart="492.00" from="25" to="-12"/>
    <trip id="83" depart="498.00" from="-21" to="17"/>
    <trip id="84" depart="504.00" from="-2" to="-17"/>
    <trip id="85" depart="510.00" from="6" to="10"/>
    <trip id="86" depart="516.00" from="-8" to="22"/>
    <trip id="87" depart="522.00" from="23" to="-19"/>
    <trip id="88" depart="528.00" from="-14" to="-7"/>
    <trip id="89" depart="534.00" from="-6" to="-8"/>
    <trip id="90" depart="540.00" from="2" to="17"/>
    <trip id="91" depart="546.00" from="9" to="-14"/>
    <trip id="92" depart="552.00" from="-6" to="-25"/>
    <trip id="93" depart="558.00" from="25" to="-21"/>
    <trip id="94" depart="564.00" from="-19" to="-7"/>
    <trip id="95" depart="570.00" from="-6" to="-23"/>
    <trip id="96" depart="576.00" from="-21" to="5"/>
    <trip id="97" depart="582.00" from="-7" to="25"/>
    <trip id="98" depart="588.00" from="10" to="-12"/>
    <trip id="99" depart="594.00" from="9" to="24"/>
    <trip id="100" depart="600.00" from="7" to="6"/>
    <trip id="101" depart="606.00" from="24" to="-18"/>
    <trip id="102" depart="612.00" from="-9" to="-2"/>
    <trip id="103" depart="618.00" from="-6" to="-12"/>
    <trip id="104" depart="624.00" from="-4" to="9"/>
    <trip id="105" depart="630.00" from="-22" to="22"/>
    <trip id="106" depart="636.00" from="-8" to="-6"/>
    <trip id="107" depart="642.00" from="7" to="9"/>
    <trip id="108" depart="648.00" from="10" to="19"/>
    <trip id="109" depart="654.00" from="-18" to="-23"/>
    <trip id="110" depart="660.00" from="7" to="12"/>
    <trip id="111" depart="666.00" from="1" to="2"/>
    <trip id="112" depart="672.00" from="-12" to="12"/>
    <trip id="113" depart="678.00" from="0" to="25"/>
    <trip id="114" depart="684.00" from="-18" to="7"/>
    <trip id="115" depart="690.00" from="-14" to="-19"/>
    <trip id="116" depart="696.00" from="12" to="18"/>
    <trip id="117" depart="702.00" from="-21" to="-16"/>
    <trip id="118" depart="708.00" from="4" to="-21"/>
    <trip id="119" depart="714.00" from="12" to="14"/>
    <trip id="120" depart="720.00" from="-6" to="12"/>
    <trip id="121" depart="726.00" from="0" to="6"/>
    <trip id="122" depart="732.00" from="-2" to="19"/>
    <trip id="123" depart="738.00" from="-21" to="-4"/>
    <trip id="124" depart="744.00" from="17" to="-23"/>
    <trip id="125" depart="750.00" from="-24" to="21"/>
    <trip id="126" depart="756.00" from="-12" to="-8"/>
    <trip id="127" depart="762.00" from="9" to="9"/>
    <trip id="128" depart="768.00" from="-12" to="-2"/>
    <trip id="129" depart="774.00" from="-22" to="6"/>
    <trip id="130" depart="780.00" from="4" to="4"/>
    <trip id="131" depart="786.00" from="-3" to="-18"/>
    <trip id="132" depart="792.00" from="24" to="19"/>
    <trip id="133" depart="798.00" from="14" to="9"/>
    <trip id="134" depart="804.00" from="17" to="-1"/>
    <trip id="135" depart="810.00" from="23" to="-23"/>
    <trip id="136" depart="816.00" from="17" to="6"/>
    <trip id="137" depart="822.00" from="-17" to="-16"/>
    <trip id="138" depart="828.00" from="-16" to="10"/>
    <trip id="139" depart="834.00" from="-22" to="14"/>
    <trip id="140" depart="840.00" from="19" to="-2"/>
    <trip id="141" depart="846.00" from="16" to="-22"/>
    <trip id="142" depart="852.00" from="-9" to="5"/>
    <trip id="143" depart="858.00" from="24" to="-14"/>
    <trip id="144" depart="864.00" from="-6" to="-23"/>
    <trip id="145" depart="870.00" from="-1" to="21"/>
    <trip id="146" depart="876.00" from="16" to="-22"/>
    <trip id="147" depart="882.00" from="2" to="10"/>
    <trip id="148" depart="888.00" from="-7" to="-1"/>
    <trip id="149" depart="894.00" from="-14" to="4"/>
    <trip id="150" depart="900.00" from="5" to="1"/>
    <trip id="151" depart="906.00" from="24" to="12"/>
    <trip id="152" depart="912.00" from="-17" to="-17"/>
    <trip id="153" depart="918.00" from="-24" to="4"/>
    <trip id="154" depart="924.00" from="22" to="25"/>
    <trip id="155" depart="930.00" from="4" to="-2"/>
    <trip id="156" depart="936.00" from="-21" to="-16"/>
    <trip id="157" depart="942.00" from="22" to="4"/>
    <trip id="158" depart="948.00" from="-6" to="14"/>
    <trip id="159" depart="954.00" from="-18" to="6"/>
    <trip id="160" depart="960.00" from="25" to="9"/>
    <trip id="161" depart="966.00" from="23" to="4"/>
    <trip id="162" depart="972.00" from="-1" to="2"/>
    <trip id="163" depart="978.00" from="-25" to="6"/>
    <trip id="164" depart="984.00" from="23" to="25"/>
    <trip id="165" depart="990.00" from="23" to="-22"/>
    <trip id="166" depart="996.00" from="22" to="-16"/>
    <trip id="167" depart="1002.00" from="25" to="25"/>
    <trip id="168" depart="1008.00" from="-2" to="23"/>
    <trip id="169" depart="1014.00" from="-8" to="-24"/>
    <trip id="170" depart="1020.00" from="22" to="-21"/>
    <trip id="171" depart="1026.00" from="-1" to="-19"/>
    <trip id="172" depart="1032.00" from="-25" to="25"/>
    <trip id="173" depart="1038.00" from="7" to="-23"/>
    <trip id="174" depart="1044.00" from="16" to="-4"/>
    <trip id="175" depart="1050.00" from="9" to="1"/>
    <trip id="176" depart="1056.00" from="6" to="-16"/>
    <trip id="177" depart="1062.00" from="7" to="-19"/>
    <trip id="178" depart="1068.00" from="7" to="-22"/>
    <trip id="179" depart="1074.00" from="-16" to="-7"/>
    <trip id="180" depart="1080.00" from="2" to="-24"/>
    <trip id="181" depart="1086.00" from="14" to="0"/>
    <trip id="182" depart="1092.00" from="-4" to="12"/>
    <trip id="183" depart="1098.00" from="-22" to="19"/>
    <trip id="184" depart="1104.00" from="-1" to="6"/>
    <trip id="185" depart="1110.00" from="1" to="19"/>
    <trip id="186" depart="1116.00" from="2" to="17"/>
    <trip id="187" depart="1122.00" from="-3" to="-12"/>
    <trip id="188" depart="1128.00" from="17" to="-25"/>
    <trip id="189" depart="1134.00" from="-24" to="24"/>
    <trip id="190" depart="1140.00" from="19" to="-24"/>
    <trip id="191" depart="1146.00" from="-24" to="-6"/>
    <trip id="192" depart="1152.00" from="-6" to="-23"/>
    <trip id="193" depart="1158.00" from="-17" to="-6"/>
    <trip id="194" depart="1164.00" from="6" to="18"/>
    <trip id="195" depart="1170.00" from="5" to="14"/>
    <trip id="196" depart="1176.00" from="-24" to="1"/>
    <trip id="197" depart="1182.00" from="-1" to="-23"/>
    <trip id="198" depart="1188.00" from="-7" to="12"/>
    <trip id="199" depart="1194.00" from="17" to="-8"/>
    <trip id="200" depart="1200.00" from="-7" to="-2"/>
    <trip id="201" depart="1206.00" from="-8" to="5"/>
    <trip id="202" depart="1212.00" from="22" to="-18"/>
    <trip id="203" depart="1218.00" from="-14" to="0"/>
    <trip id="204" depart="1224.00" from="16" to="-25"/>
    <trip id="205" depart="1230.00" from="23" to="21"/>
    <trip id="206" depart="1236.00" from="17" to="-2"/>
    <trip id="207" depart="1242.00" from="-19" to="-1"/>
    <trip id="208" depart="1248.00" from="-21" to="-9"/>
    <trip id="209" depart="1254.00" from="24" to="-12"/>
    <trip id="210" depart="1260.00" from="-6" to="16"/>
    <trip id="211" depart="1266.00" from="-19" to="18"/>
    <trip id="212" depart="1272.00" from="-9" to="-21"/>
    <trip id="213" depart="1278.00" from="17" to="-1"/>
    <trip id="214" depart="1284.00" from="21" to="21"/>
    <trip id="215" depart="1290.00" from="-16" to="-7"/>
    <trip id="216" depart="1296.00" from="-19" to="7"/>
    <trip id="217" depart="1302.00" from="0" to="-12"/>
    <trip id="218" depart="1308.00" from="-21" to="24"/>
    <trip id="219" depart="1314.00" from="-8" to="23"/>
    <trip id="220" depart="1320.00" from="17" to="9"/>
    <trip id="221" depart="1326.00" from="12" to="7"/>
    <trip id="222" depart="1332.00" from="4" to="14"/>
    <trip id="223" depart="1338.00" from="19" to="0"/>
    <trip id="224" depart="1344.00" from="24" to="1"/>
    <trip id="225" depart="1350.00" from="4" to="2"/>
    <trip id="226" depart="1356.00" from="-8" to="-22"/>
    <trip id="227" depart="1362.00" from="-21" to="16"/>
    <trip id="228" depart="1368.00" from="21" to="0"/>
    <trip id="229" depart="1374.00" from="16" to="-22"/>
    <trip id="230" depart="1380.00" from="-14" to="-23"/>
    <trip id="231" depart="1386.00" from="-22" to="-24"/>
    <trip id="232" depart="1392.00" from="1" to="-17"/>
    <trip id="233" depart="1398.00" from="-21" to="18"/>
    <trip id="234" depart="1404.00" from="19" to="-12"/>
    <trip id="235" depart="1410.00" from="-6" to="1"/>
    <trip id="236" depart="1416.00" from="-6" to="-2"/>
    <trip id="237" depart="1422.00" from="-6" to="5"/>
    <trip id="238" depart="1428.00" from="12" to="18"/>
    <trip id="239" depart="1434.00" from="25" to="21"/>
    <trip id="240" depart="1440.00" from="-4" to="-1"/>
    <trip id="241" depart="1446.00" from="-3" to="21"/>
    <trip id="242" depart="1452.00" from="25" to="7"/>
    <trip id="243" depart="1458.00" from="-6" to="2"/>
    <trip id="244" depart="1464.00" from="1" to="14"/>
    <trip id="245" depart="1470.00" from="-2" to="-2"/>
    <trip id="246" depart="1476.00" from="-7" to="-10"/>
    <trip id="247" depart="1482.00" from="-25" to="18"/>
    <trip id="248" depart="1488.00" from="-6" to="-18"/>
    <trip id="249" depart="1494.00" from="-8" to="-17"/>
    <trip id="250" depart="1500.00" from="14" to="-10"/>
    <trip id="251" depart="1506.00" from="-4" to="10"/>
    <trip id="252" depart="1512.00" from="-10" to="16"/>
    <trip id="253" depart="1518.00" from="-17" to="-8"/>
    <trip id="254" depart="1524.00" from="-12" to="-4"/>
    <trip id="255" depart="1530.00" from="-2" to="-25"/>
    <trip id="256" depart="1536.00" from="21" to="-4"/>
    <trip id="257" depart="1542.00" from="21" to="24"/>
    <trip id="258" depart="1548.00" from="-22" to="-14"/>
    <trip id="259" depart="1554.00" from="-1" to="1"/>
    <trip id="260" depart="1560.00" from="9" to="-25"/>
    <trip id="261" depart="1566.00" from="17" to="22"/>
    <trip id="262" depart="1572.00" from="17" to="21"/>
    <trip id="263" depart="1578.00" from="6" to="-19"/>
    <trip id="264" depart="1584.00" from="-1" to="-18"/>
    <trip id="265" depart="1590.00" from="-17" to="17"/>
    <trip id="266" depart="1596.00" from="10" to="-2"/>
    <trip id="267" depart="1602.00" from="18" to="21"/>
    <trip id="268" depart="1608.00" from="-18" to="14"/>
    <trip id="269" depart="1614.00" from="2" to="-16"/>
    <trip id="270" depart="1620.00" from="23" to="7"/>
    <trip id="271" depart="1626.00" from="-16" to="-10"/>
    <trip id="272" depart="1632.00" from="-24" to="18"/>
    <trip id="273" depart="1638.00" from="7" to="-4"/>
    <trip id="274" depart="1644.00" from="19" to="-14"/>
    <trip id="275" depart="1650.00" from="18" to="16"/>
    <trip id="276" depart="1656.00" from="-16" to="21"/>
    <trip id="277" depart="1662.00" from="25" to="14"/>
    <trip id="278" depart="1668.00" from="-16" to="9"/>
    <trip id="279" depart="1674.00" from="22" to="-25"/>
    <trip id="280" depart="1680.00" from="-7" to="-3"/>
    <trip id="281" depart="1686.00" from="0" to="-25"/>
    <trip id="282" depart="1692.00" from="24" to="23"/>
    <trip id="283" depart="1698.00" from="-16" to="7"/>
    <trip id="284" depart="1704.00" from="16" to="24"/>
    <trip id="285" depart="1710.00" from="19" to="-7"/>
    <trip id="286" depart="1716.00" from="2" to="7"/>
    <trip id="287" depart="1722.00" from="-22" to="23"/>
    <trip id="288" depart="1728.00" from="1" to="-9"/>
    <trip id="289" depart="1734.00" from="-7" to="2"/>
    <trip id="290" depart="1740.00" from="-22" to="25"/>
    <trip id="291" depart="1746.00" from="24" to="-14"/>
    <trip id="292" depart="1752.00" from="4" to="-21"/>
    <trip id="293" depart="1758.00" from="-8" to="14"/>
    <trip id="294" depart="1764.00" from="-4" to="-10"/>
    <trip id="295" depart="1770.00" from="25" to="-19"/>
    <trip id="296" depart="1776.00" from="-2" to="22"/>
    <trip id="297" depart="1782.00" from="-25" to="4"/>
    <trip id="298" depart="1788.00" from="19" to="-23"/>
    <trip id="299" depart="1794.00" from="-1" to="6"/>
    <trip id="300" depart="1800.00" from="-14" to="19"/>
    <trip id="301" depart="1806.00" from="-9" to="21"/>
    <trip id="302" depart="1812.00" from="18" to="16"/>
    <trip id="303" depart="1818.00" from="-9" to="22"/>
    <trip id="304" depart="1824.00" from="-14" to="-2"/>
    <trip id="305" depart="1830.00" from="18" to="-24"/>
    <trip id="306" depart="1836.00" from="12" to="-8"/>
    <trip id="307" depart="1842.00" from="1" to="-7"/>
    <trip id="308" depart="1848.00" from="2" to="-25"/>
    <trip id="309" depart="1854.00" from="19" to="-22"/>
    <trip id="310" depart="1860.00" from="-22" to="-16"/>
    <trip id="311" depart="1866.00" from="-19" to="-16"/>
    <trip id="312" depart="1872.00" from="1" to="21"/>
    <trip id="313" depart="1878.00" from="-19" to="-2"/>
    <trip id="314" depart="1884.00" from="-9" to="19"/>
    <trip id="315" depart="1890.00" from="9" to="0"/>
    <trip id="316" depart="1896.00" from="-23" to="-16"/>
    <trip id="317" depart="1902.00" from="-19" to="-21"/>
    <trip id="318" depart="1908.00" from="-19" to="-1"/>
    <trip id="319" depart="1914.00" from="1" to="-22"/>
    <trip id="320" depart="1920.00" from="7" to="10"/>
    <trip id="321" depart="1926.00" from="18" to="-17"/>
    <trip id="322" depart="1932.00" from="25" to="-9"/>
    <trip id="323" depart="1938.00" from="25" to="10"/>
    <trip id="324" depart="1944.00" from="-8" to="-7"/>
    <trip id="325" depart="1950.00" from="-19" to="-12"/>
    <trip id="326" depart="1956.00" from="6" to="-9"/>
    <trip id="327" depart="1962.00" from="23" to="-6"/>
    <trip id="328" depart="1968.00" from="-12" to="16"/>
    <trip id="329" depart="1974.00" from="-12" to="-17"/>
    <trip id="330" depart="1980.00" from="10" to="-24"/>
    <trip id="331" depart="1986.00" from="9" to="-16"/>
    <trip id="332" depart="1992.00" from="21" to="14"/>
    <trip id="333" depart="1998.00" from="22" to="-21"/>
    <trip id="334" depart="2004.00" from="0" to="-8"/>
    <trip id="335" depart="2010.00" from="-7" to="25"/>
    <trip id="336" depart="2016.00" from="9" to="-24"/>
    <trip id="337" depart="2022.00" from="14" to="14"/>
    <trip id="338" depart="2028.00" from="2" to="6"/>
    <trip id="339" depart="2034.00" from="-2" to="-2"/>
    <trip id="340" depart="2040.00" from="17" to="-18"/>
    <trip id="341" depart="2046.00" from="-18" to="-14"/>
    <trip id="342" depart="2052.00" from="-1" to="-8"/>
    <trip id="343" depart="2058.00" from="12" to="-23"/>
    <trip id="344" depart="2064.00" from="-21" to="19"/>
    <trip id="345" depart="2070.00" from="19" to="-8"/>
    <trip id="346" depart="2076.00" from="18" to="5"/>
    <trip id="347" depart="2082.00" from="22" to="16"/>
    <trip id="348" depart="2088.00" from="17" to="6"/>
    <trip id="349" depart="2094.00" from="-7" to="1"/>
    <trip id="350" depart="2100.00" from="16" to="5"/>
    <trip id="351" depart="2106.00" from="24" to="-12"/>
    <trip id="352" depart="2112.00" from="-18" to="-24"/>
    <trip id="353" depart="2118.00" from="2" to="10"/>
    <trip id="354" depart="2124.00" from="-23" to="-16"/>
    <trip id="355" depart="2130.00" from="18" to="18"/>
    <trip id="356" depart="2136.00" from="6" to="0"/>
    <trip id="357" depart="2142.00" from="-9" to="-14"/>
    <trip id="358" depart="2148.00" from="-10" to="-7"/>
    <trip id="359" depart="2154.00" from="-24" to="-22"/>
    <trip id="360" depart="2160.00" from="-14" to="7"/>
    <trip id="361" depart="2166.00" from="24" to="12"/>
    <trip id="362" depart="2172.00" from="7" to="9"/>
    <trip id="363" depart="2178.00" from="17" to="-22"/>
    <trip id="364" depart="2184.00" from="-10" to="21"/>
    <trip id="365" depart="2190.00" from="-8" to="17"/>
    <trip id="366" depart="2196.00" from="5" to="-19"/>
    <trip id="367" depart="2202.00" from="12" to="16"/>
    <trip id="368" depart="2208.00" from="-9" to="-14"/>
    <trip id="369" depart="2214.00" from="-25" to="-25"/>
    <trip id="370" depart="2220.00" from="17" to="25"/>
    <trip id="371" depart="2226.00" from="-25" to="18"/>
    <trip id="372" depart="2232.00" from="-23" to="6"/>
    <trip id="373" depart="2238.00" from="23" to="10"/>
    <trip id="374" depart="2244.00" from="-8" to="-24"/>
    <trip id="375" depart="2250.00" from="-24" to="7"/>
    <trip id="376" depart="2256.00" from="-6" to="0"/>
    <trip id="377" depart="2262.00" from="9" to="17"/>
    <trip id="378" depart="2268.00" from="1" to="-6"/>
    <trip id="379" depart="2274.00" from="-19" to="-3"/>
    <trip id="380" depart="2280.00" from="21" to="16"/>
    <trip id="381" depart="2286.00" from="21" to="-2"/>
    <trip id="382" depart="2292.00" from="1" to="6"/>
    <trip id="383" depart="2298.00" from="-7" to="18"/>
    <trip id="384" depart="2304.00" from="-16" to="7"/>
    <trip id="385" depart="2310.00" from="14" to="-21"/>
    <trip id="386" depart="2316.00" from="-18" to="10"/>
    <trip id="387" depart="2322.00" from="10" to="-14"/>
    <trip id="388" depart="2328.00" from="9" to="5"/>
    <trip id="389" depart="2334.00" from="-8" to="-16"/>
    <trip id="390" depart="2340.00" from="24" to="-9"/>
    <trip id="391" depart="2346.00" from="19" to="0"/>
    <trip id="392" depart="2352.00" from="-22" to="24"/>
    <trip id="393" depart="2358.00" from="9" to="-21"/>
    <trip id="394" depart="2364.00" from="10" to="-4"/>
    <trip id="395" depart="2370.00" from="5" to="0"/>
    <trip id="396" depart="2376.00" from="4" to="25"/>
    <trip id="397" depart="2382.00" from="-23" to="22"/>
    <trip id="398" depart="2388.00" from="-6" to="6"/>
    <trip id="399" depart="2394.00" from="0" to="23"/>
    <trip id="400" depart="2400.00" from="-23" to="-23"/>
    <trip id="401" depart="2406.00" from="12" to="9"/>
    <trip id="402" depart="2412.00" from="-9" to="-17"/>
    <trip id="403" depart="2418.00" from="1" to="-25"/>
    <trip id="404" depart="2424.00" from="10" to="1"/>
    <trip id="405" depart="2430.00" from="-8" to="-24"/>
    <trip id="406" depart="2436.00" from="-19" to="18"/>
    <trip id="407" depart="2442.00" from="10" to="-21"/>
    <trip id="408" depart="2448.00" from="22" to="-10"/>
    <trip id="409" depart="2454.00" from="2" to="19"/>
    <trip id="410" depart="2460.00" from="23" to="-4"/>
    <trip id="411" depart="2466.00" from="17" to="23"/>
    <trip id="412" depart="2472.00" from="9" to="-9"/>
    <trip id="413" depart="2478.00" from="-10" to="0"/>
    <trip id="414" depart="2484.00" from="12" to="25"/>
    <trip id="415" depart="2490.00" from="25" to="-7"/>
    <trip id="416" depart="2496.00" from="1" to="-8"/>
    <trip id="417" depart="2502.00" from="19" to="-6"/>
    <trip id="418" depart="2508.00" from="17" to="-18"/>
    <trip id="419" depart="2514.00" from="-8" to="7"/>
    <trip id="420" depart="2520.00" from="-25" to="18"/>
    <trip id="421" depart="2526.00" from="16" to="25"/>
    <trip id="422" depart="2532.00" from="25" to="25"/>
    <trip id="423" depart="2538.00" from="-4" to="-24"/>
    <trip id="424" depart="2544.00" from="19" to="21"/>
    <trip id="425" depart="2550.00" from="25" to="-10"/>
    <trip id="426" depart="2556.00" from="-12" to="16"/>
    <trip id="427" depart="2562.00" from="5" to="9"/>
    <trip id="428" depart="2568.00" from="2" to="-7"/>
    <trip id="429" depart="2574.00" from="-14" to="16"/>
    <trip id="430" depart="2580.00" from="25" to="-7"/>
    <trip id="431" depart="2586.00" from="18" to="5"/>
    <trip id="432" depart="2592.00" from="-10" to="22"/>
    <trip id="433" depart="2598.00" from="-23" to="-3"/>
    <trip id="434" depart="2604.00" from="-17" to="1"/>
    <trip id="435" depart="2610.00" from="10" to="22"/>
    <trip id="436" depart="2616.00" from="-18" to="-14"/>
    <trip id="437" depart="2622.00" from="25" to="14"/>
    <trip id="438" depart="2628.00" from="-21" to="5"/>
    <trip id="439" depart="2634.00" from="-17" to="-8"/>
    <trip id="440" depart="2640.00" from="-22" to="-22"/>
    <trip id="441" depart="2646.00" from="-1" to="23"/>
    <trip id="442" depart="2652.00" from="5" to="18"/>
    <trip id="443" depart="2658.00" from="-18" to="-7"/>
    <trip id="444" depart="2664.00" from="-25" to="12"/>
    <trip id="445" depart="2670.00" from="16" to="-6"/>
    <trip id="446" depart="2676.00" from="-22" to="24"/>
    <trip id="447" depart="2682.00" from="-19" to="-4"/>
    <trip id="448" depart="2688.00" from="-9" to="-21"/>
    <trip id="449" depart="2694.00" from="10" to="10"/>
    <trip id="450" depart="2700.00" from="9" to="-23"/>
    <trip id="451" depart="2706.00" from="9" to="17"/>
    <trip id="452" depart="2712.00" from="-22" to="10"/>
    <trip id="453" depart="2718.00" from="18" to="2"/>
    <trip id="454" depart="2724.00" from="-10" to="14"/>
    <trip id="455" depart="2730.00" from="-9" to="5"/>
    <trip id="456" depart="2736.00" from="-23" to="22"/>
    <trip id="457" depart="2742.00" from="14" to="-3"/>
    <trip id="458" depart="2748.00" from="16" to="14"/>
    <trip id="459" depart="2754.00" from="18" to="19"/>
    <trip id="460" depart="2760.00" from="17" to="24"/>
    <trip id="461" depart="2766.00" from="16" to="5"/>
    <trip id="462" depart="2772.00" from="16" to="-24"/>
    <trip id="463" depart="2778.00" from="-7" to="12"/>
    <trip id="464" depart="2784.00" from="2" to="-14"/>
    <trip id="465" depart="2790.00" from="-23" to="2"/>
    <trip id="466" depart="2796.00" from="-19" to="-17"/>
    <trip id="467" depart="2802.00" from="1" to="7"/>
    <trip id="468" depart="2808.00" from="1" to="5"/>
    <trip id="469" depart="2814.00" from="24" to="-22"/>
    <trip id="470" depart="2820.00" from="23" to="-9"/>
    <trip id="471" depart="2826.00" from="23" to="2"/>
    <trip id="472" depart="2832.00" from="-25" to="-16"/>
    <trip id="473" depart="2838.00" from="7" to="-17"/>
    <trip id="474" depart="2844.00" from="7" to="25"/>
    <trip id="475" depart="2850.00" from="19" to="9"/>
    <trip id="476" depart="2856.00" from="7" to="23"/>
    <trip id="477" depart="2862.00" from="-3" to="22"/>
    <trip id="478" depart="2868.00" from="-1" to="1"/>
    <trip id="479" depart="2874.00" from="-8" to="17"/>
    <trip id="480" depart="2880.00" from="17" to="12"/>
    <trip id="481" depart="2886.00" from="23" to="6"/>
    <trip id="482" depart="2892.00" from="-16" to="-21"/>
    <trip id="483" depart="2898.00" from="-10" to="4"/>
    <trip id="484" depart="2904.00" from="10" to="5"/>
    <trip id="485" depart="2910.00" from="-2" to="-12"/>
    <trip id="486" depart="2916.00" from="23" to="5"/>
    <trip id="487" depart="2922.00" from="-24" to="-6"/>
    <trip id="488" depart="2928.00" from="-17" to="6"/>
    <trip id="489" depart="2934.00" from="-24" to="-9"/>
    <trip id="490" depart="2940.00" from="-14" to="4"/>
    <trip id="491" depart="2946.00" from="-17" to="-8"/>
    <trip id="492" depart="2952.00" from="17" to="2"/>
    <trip id="493" depart="2958.00" from="6" to="-6"/>
    <trip id="494" depart="2964.00" from="2" to="-18"/>
    <trip id="495" depart="2970.00" from="-6" to="-14"/>
    <trip id="496" depart="2976.00" from="-9" to="-6"/>
    <trip id="497" depart="2982.00" from="7" to="-10"/>
    <trip id="498" depart="2988.00" from="-3" to="-7"/>
    <trip id="499" depart="2994.00" from="7" to="25"/>
    <trip id="500" depart="3000.00" from="-14" to="18"/>
    <trip id="501" depart="3006.00" from="1" to="9"/>
    <trip id="502" depart="3012.00" from="-3" to="-4"/>
    <trip id="503" depart="3018.00" from="-19" to="-16"/>
    <trip id="504" depart="3024.00" from="24" to="-8"/>
    <trip id="505" depart="3030.00" from="17" to="16"/>
    <trip id="506" depart="3036.00" from="12" to="-1"/>
    <trip id="507" depart="3042.00" from="22" to="-21"/>
    <trip id="508" depart="3048.00" from="-17" to="10"/>
    <trip id="509" depart="3054.00" from="-12" to="21"/>
    <trip id="510" depart="3060.00" from="-2" to="-2"/>
    <trip id="511" depart="3066.00" from="25" to="-25"/>
    <trip id="512" depart="3072.00" from="-17" to="5"/>
    <trip id="513" depart="3078.00" from="-1" to="25"/>
    <trip id="514" depart="3084.00" from="-17" to="-17"/>
    <trip id="515" depart="3090.00" from="-22" to="-18"/>
    <trip id="516" depart="3096.00" from="17" to="-10"/>
    <trip id="517" depart="3102.00" from="-1" to="22"/>
    <trip id="518" depart="3108.00" from="-21" to="-24"/>
    <trip id="519" depart="3114.00" from="-18" to="-12"/>
    <trip id="520" depart="3120.00" from="2" to="1"/>
    <trip id="521" depart="3126.00" from="2" to="-9"/>
    <trip id="522" depart="3132.00" from="22" to="0"/>
    <trip id="523" depart="3138.00" from="-16" to="0"/>
    <trip id="524" depart="3144.00" from="6" to="-10"/>
    <trip id="525" depart="3150.00" from="22" to="25"/>
    <trip id="526" depart="3156.00" from="0" to="-8"/>
    <trip id="527" depart="3162.00" from="7" to="-12"/>
    <trip id="528" depart="3168.00" from="-9" to="-6"/>
    <trip id="529" depart="3174.00" from="18" to="-9"/>
    <trip id="530" depart="3180.00" from="5" to="-12"/>
    <trip id="531" depart="3186.00" from="-14" to="14"/>