<?xml version="1.0" encoding="UTF-8"?>

<!-- generated on 2023-03-08 11:05:19.634190 by osmWebWizard.py UNKNOWN
<configuration>
    <allow-fringe.min-length value="1000.0"/>
    <end value="3600"/>
    <fringe-factor value="5"/>
    <fringe-start-attributes value="departSpeed=&quot;max&quot;"/>
    <insertion-density value="12.0"/>
    <lanes value="True"/>
    <min-distance.fringe value="10.0"/>
    <min-distance value="300.0"/>
    <net-file value="/home/wayne/code/LimSim/2023-03-07-17-17-00/2023-03-08-11-03-46/osm.net.xml.gz"/>
    <remove-loops value="True"/>
    <route-file value="/home/wayne/code/LimSim/2023-03-07-17-17-00/2023-03-08-11-03-46/osm.passenger.rou.xml"/>
    <trip-attributes value="departLane=&quot;best&quot;"/>
    <output-trip-file value="/home/wayne/code/LimSim/2023-03-07-17-17-00/2023-03-08-11-03-46/osm.passenger.trips.xml"/>
    <prefix value="veh"/>
    <validate value="True"/>
    <vehicle-class value="passenger"/>
</configuration>
-->

<!-- generated on 2023-03-08 11:05:19 by Eclipse SUMO duarouter Version v1_15_0+0596-65718631903
<configuration xmlns:xsi="http://www.w3.org/2001/XMLSchema-instance" xsi:noNamespaceSchemaLocation="http://sumo.dlr.de/xsd/duarouterConfiguration.xsd">

    <input>
        <net-file value="/home/wayne/code/LimSim/2023-03-07-17-17-00/2023-03-08-11-03-46/osm.net.xml.gz"/>
        <route-files value="/home/wayne/code/LimSim/2023-03-07-17-17-00/2023-03-08-11-03-46/osm.passenger.trips.xml"/>
    </input>

    <output>
        <output-file value="/home/wayne/code/LimSim/2023-03-07-17-17-00/2023-03-08-11-03-46/osm.passenger.trips.xml.tmp"/>
        <alternatives-output value="NUL"/>
        <write-trips value="true"/>
    </output>

    <processing>
        <remove-loops value="true"/>
    </processing>

    <time>
        <begin value="0"/>
        <end value="3600"/>
    </time>

    <report>
        <no-warnings value="true"/>
        <ignore-errors value="true"/>
        <no-step-log value="true"/>
    </report>

</configuration>
-->

<routes xmlns:xsi="http://www.w3.org/2001/XMLSchema-instance" xsi:noNamespaceSchemaLocation="http://sumo.dlr.de/xsd/routes_file.xsd">
    <vType id="veh_passenger" vClass="passenger"/>
    <trip id="veh0" type="veh_passenger" depart="0.00" departLane="best" from="41698387#4" to="-148384173#0"/>
    <trip id="veh1" type="veh_passenger" depart="3.30" departLane="best" from="157167523#5" to="123403713#0"/>
    <trip id="veh2" type="veh_passenger" depart="6.59" departLane="best" from="542574362#0" to="43634581"/>
    <trip id="veh3" type="veh_passenger" depart="9.89" departLane="best" departSpeed="max" from="628997829" to="-302876659"/>
    <trip id="veh4" type="veh_passenger" depart="13.18" departLane="best" from="22926407#1" to="-148384173#0"/>
    <trip id="veh5" type="veh_passenger" depart="16.48" departLane="best" from="-120925519" to="28489780"/>
    <trip id="veh6" type="veh_passenger" depart="19.77" departLane="best" departSpeed="max" from="148384173#1" to="1124146231"/>
    <trip id="veh7" type="veh_passenger" depart="23.07" departLane="best" from="41867845#0" to="340821944#0"/>
    <trip id="veh8" type="veh_passenger" depart="26.36" departLane="best" from="123087528" to="412840937"/>
    <trip id="veh9" type="veh_passenger" depart="29.66" departLane="best" from="623203026#0" to="-11503698#1"/>
    <trip id="veh10" type="veh_passenger" depart="32.96" departLane="best" from="623203025#1" to="456074017#0"/>
    <trip id="veh11" type="veh_passenger" depart="36.25" departLane="best" from="208403981#2" to="-900496114"/>
    <trip id="veh12" type="veh_passenger" depart="39.55" departLane="best" from="25323520#3" to="22875794#0"/>
    <trip id="veh14" type="veh_passenger" depart="46.14" departLane="best" from="627566671#1" to="208403981#1"/>
    <trip id="veh15" type="veh_passenger" depart="49.43" departLane="best" from="623203025#1" to="542574362#0"/>
    <trip id="veh16" type="veh_passenger" depart="52.73" departLane="best" from="22875804#7" to="359617709#2"/>
    <trip id="veh17" type="veh_passenger" depart="56.02" departLane="best" from="623205914" to="41698386#0"/>
    <trip id="veh20" type="veh_passenger" depart="65.91" departLane="best" departSpeed="max" from="123403735#0" to="171880885#3"/>
    <trip id="veh21" type="veh_passenger" depart="69.21" departLane="best" from="-359617709#3" to="123443406#0"/>
    <trip id="veh23" type="veh_passenger" depart="75.80" departLane="best" from="41698387#1" to="22876106#0"/>
    <trip id="veh24" type="veh_passenger" depart="79.09" departLane="best" departSpeed="max" from="22875804#0" to="1124251782#2"/>
    <trip id="veh25" type="veh_passenger" depart="82.39" departLane="best" departSpeed="max" from="148386665#0" to="812798732#0"/>
    <trip id="veh26" type="veh_passenger" depart="85.68" departLane="best" from="418058733#2" to="41688617#3"/>
    <trip id="veh27" type="veh_passenger" depart="88.98" departLane="best" from="1024946480#0" to="542574362#0"/>
    <trip id="veh28" type="veh_passenger" depart="92.27" departLane="best" departSpeed="max" from="-897216005" to="22876153"/>
    <trip id="veh29" type="veh_passenger" depart="95.57" departLane="best" from="97874836#4" to="41867845#1"/>
    <trip id="veh30" type="veh_passenger" depart="98.87" departLane="best" departSpeed="max" from="308544362#0" to="43634584#0"/>
    <trip id="veh31" type="veh_passenger" depart="102.16" departLane="best" from="627566670#0" to="620645591#1-AddedOffRampEdge"/>
    <trip id="veh32" type="veh_passenger" depart="105.46" departLane="best" departSpeed="max" from="123403735#0" to="-157167523#4"/>
    <trip id="veh34" type="veh_passenger" depart="112.05" departLane="best" departSpeed="max" from="11505371" to="827277449"/>
    <trip id="veh35" type="veh_passenger" depart="115.34" departLane="best" from="628861516" to="185201418"/>
    <trip id="veh36" type="veh_passenger" depart="118.64" departLane="best" from="41867845#1" to="22876240#0"/>
    <trip id="veh37" type="veh_passenger" depart="121.93" departLane="best" from="65495088#1" to="28210668"/>
    <trip id="veh38" type="veh_passenger" depart="125.23" departLane="best" departSpeed="max" from="148386665#0" to="627566671#1"/>
    <trip id="veh39" type="veh_passenger" depart="128.53" departLane="best" from="340821944#0" to="-157167540#1"/>
    <trip id="veh40" type="veh_passenger" depart="131.82" departLane="best" from="411824372" to="65495088#0"/>
    <trip id="veh41" type="veh_passenger" depart="135.12" departLane="best" from="22876130" to="118495382"/>
    <trip id="veh42" type="veh_passenger" depart="138.41" departLane="best" departSpeed="max" from="97894990#0" to="28489780"/>
    <trip id="veh44" type="veh_passenger" depart="145.00" departLane="best" departSpeed="max" from="-456074017#1" to="-41789689"/>
    <trip id="veh45" type="veh_passenger" depart="148.30" departLane="best" from="620645591#1-AddedOffRampEdge" to="25322042#1"/>
    <trip id="veh46" type="veh_passenger" depart="151.59" departLane="best" departSpeed="max" from="-28489650#1" to="22876153"/>
    <trip id="veh47" type="veh_passenger" depart="154.89" departLane="best" departSpeed="max" from="97894990#0" to="290195420#2"/>
    <trip id="veh48" type="veh_passenger" depart="158.19" departLane="best" from="914263280#0" to="628258228#1"/>
    <trip id="veh50" type="veh_passenger" depart="164.78" departLane="best" from="433243242#0" to="308541555"/>
    <trip id="veh51" type="veh_passenger" depart="168.07" departLane="best" departSpeed="max" from="148386665#0" to="41867845#2"/>
    <trip id="veh52" type="veh_passenger" depart="171.37" departLane="best" departSpeed="max" from="-456074017#1" to="25338379#3"/>
    <trip id="veh53" type="veh_passenger" depart="174.66" departLane="best" from="25323520#3" to="833485961"/>
    <trip id="veh54" type="veh_passenger" depart="177.96" departLane="best" from="628861516" to="-157167540#1"/>
    <trip id="veh55" type="veh_passenger" depart="181.25" departLane="best" from="-28489656#0" to="1030410636"/>
    <trip id="veh56" type="veh_passenger" depart="184.55" departLane="best" from="65495088#1" to="628997817"/>
    <trip id="veh57" type="veh_passenger" depart="187.85" departLane="best" from="166428798#0" to="41867845#1"/>
    <trip id="veh58" type="veh_passenger" depart="191.14" departLane="best" departSpeed="max" from="41579498#0" to="-900496114"/>
    <trip id="veh59" type="veh_passenger" depart="194.44" departLane="best" from="558774248#2" to="340820165#0"/>
    <trip id="veh60" type="veh_passenger" depart="197.73" departLane="best" from="59464853#2" to="290195420#4"/>
    <trip id="veh61" type="veh_passenger" depart="201.03" departLane="best" from="-1026505459" to="225469292#0"/>
    <trip id="veh62" type="veh_passenger" depart="204.32" departLane="best" departSpeed="max" from="-124047870" to="810886159"/>
    <trip id="veh63" type="veh_passenger" depart="207.62" departLane="best" from="-628997817" to="623373024"/>
    <trip id="veh64" type="veh_passenger" depart="210.91" departLane="best" from="171880886" to="-224294813"/>
    <trip id="veh65" type="veh_passenger" depart="214.21" departLane="best" from="628861517" to="833485961"/>
    <trip id="veh67" type="veh_passenger" depart="220.80" departLane="best" from="-28489659" to="59465226#1"/>
    <trip id="veh68" type="veh_passenger" depart="224.10" departLane="best" from="562492752#1" to="-60167238#1"/>
    <trip id="veh69" type="veh_passenger" depart="227.39" departLane="best" from="268152042" to="359617709#0"/>
    <trip id="veh70" type="veh_passenger" depart="230.69" departLane="best" departSpeed="max" from="148386665#0" to="628997820"/>
    <trip id="veh71" type="veh_passenger" depart="233.98" departLane="best" from="22926407#1" to="-1124251784#1"/>
    <trip id="veh72" type="veh_passenger" depart="237.28" departLane="best" departSpeed="max" from="302876659" to="542574362#0"/>
    <trip id="veh73" type="veh_passenger" depart="240.57" departLane="best" from="1134551655#1" to="174783438"/>
    <trip id="veh74" type="veh_passenger" depart="243.87" departLane="best" departSpeed="max" from="97894990#0" to="41867850"/>
    <trip id="veh75" type="veh_passenger" depart="247.16" departLane="best" from="25304565#2" to="28489781#2"/>
    <trip id="veh76" type="veh_passenger" depart="250.46" departLane="best" from="208403981#0" to="412840937"/>
    <trip id="veh77" type="veh_passenger" depart="253.76" departLane="best" from="123403735#1" to="120925519"/>
    <trip id="veh78" type="veh_passenger" depart="257.05" departLane="best" departSpeed="max" from="123403735#0" to="-65498445#3"/>
    <trip id="veh79" type="veh_passenger" depart="260.35" departLane="best" from="628258196#0" to="-22876130"/>
    <trip id="veh80" type="veh_passenger" depart="263.64" departLane="best" from="123403744#2" to="43634575#0"/>
    <trip id="veh81" type="veh_passenger" depart="266.94" departLane="best" departSpeed="max" from="11505371" to="-628258191#6"/>
    <trip id="veh82" type="veh_passenger" depart="270.23" departLane="best" departSpeed="max" from="810886156#0" to="28463412#1"/>
    <trip id="veh84" type="veh_passenger" depart="276.82" departLane="best" from="623203025#1" to="1117879244#0"/>
    <trip id="veh85" type="veh_passenger" depart="280.12" departLane="best" from="-41867850" to="25323520#3"/>
    <trip id="veh86" type="veh_passenger" depart="283.42" departLane="best" from="22926588#0" to="28463162"/>
    <trip id="veh87" type="veh_passenger" depart="286.71" departLane="best" from="53365296#1" to="43634580#1"/>
    <trip id="veh89" type="veh_passenger" depart="293.30" departLane="best" from="22876143#2" to="22875794#1"/>
    <trip id="veh90" type="veh_passenger" depart="296.60" departLane="best" from="1124146232" to="25552470#2"/>
    <trip id="veh91" type="veh_passenger" depart="299.89" departLane="best" from="22926407#1" to="166310869#0"/>
    <trip id="veh92" type="veh_passenger" depart="303.19" departLane="best" from="124047874" to="810730255#0"/>
    <trip id="veh93" type="veh_passenger" depart="306.48" departLane="best" from="628258228#1" to="628383717"/>
    <trip id="veh94" type="veh_passenger" depart="309.78" departLane="best" departSpeed="max" from="308544362#0" to="174299182#4"/>
    <trip id="veh95" type="veh_passenger" depart="313.08" departLane="best" departSpeed="max" from="97894990#0" to="627566671#0"/>
    <trip id="veh96" type="veh_passenger" depart="316.37" departLane="best" from="902623938#0" to="810886159"/>
    <trip id="veh97" type="veh_passenger" depart="319.67" departLane="best" from="627566671#1" to="1014620115#0"/>
    <trip id="veh98" type="veh_passenger" depart="322.96" departLane="best" from="28242219" to="1134551655#1"/>
    <trip id="veh99" type="veh_passenger" depart="326.26" departLane="best" from="22876132" to="-224294813"/>
    <trip id="veh100" type="veh_passenger" depart="329.55" departLane="best" from="22875804#8" to="97874833#0"/>
    <trip id="veh101" type="veh_passenger" depart="332.85" departLane="best" departSpeed="max" from="148386665#0" to="620645591#4"/>
    <trip id="veh102" type="veh_passenger" depart="336.14" departLane="best" from="25338379#1" to="628258228#0"/>
    <trip id="veh103" type="veh_passenger" depart="339.44" departLane="best" from="899446299" to="97874836#4"/>
    <trip id="veh104" type="veh_passenger" depart="342.74" departLane="best" departSpeed="max" from="308544362#0" to="501488260"/>
    <trip id="veh105" type="veh_passenger" depart="346.03" departLane="best" departSpeed="max" from="-833485961" to="171880898#0"/>
    <trip id="veh107" type="veh_passenger" depart="352.62" departLane="best" from="308541550#0" to="555456881#4"/>
    <trip id="veh109" type="veh_passenger" depart="359.21" departLane="best" from="28489657#0" to="628258196#0"/>
    <trip id="veh110" type="veh_passenger" depart="362.51" departLane="best" departSpeed="max" from="-833485961" to="871917975"/>
    <trip id="veh111" type="veh_passenger" depart="365.80" departLane="best" from="-359617709#3" to="1085322440#0"/>
    <trip id="veh112" type="veh_passenger" depart="369.10" departLane="best" departSpeed="max" from="41524801#0" to="43634580#1"/>
    <trip id="veh113" type="veh_passenger" depart="372.39" departLane="best" departSpeed="max" from="123403738" to="-45552382#2"/>
    <trip id="veh114" type="veh_passenger" depart="375.69" departLane="best" departSpeed="max" from="628997829" to="144717111#2"/>
    <trip id="veh115" type="veh_passenger" depart="378.99" departLane="best" departSpeed="max" from="41524801#0" to="41698387#0"/>
    <trip id="veh117" type="veh_passenger" depart="385.58" departLane="best" from="28489786" to="812798732#0"/>
    <trip id="veh118" type="veh_passenger" depart="388.87" departLane="best" from="11503698#2" to="501488254"/>
    <trip id="veh119" type="veh_passenger" depart="392.17" departLane="best" from="123403744#3" to="41698387#4"/>
    <trip id="veh120" type="veh_passenger" depart="395.46" departLane="best" departSpeed="max" from="41902259#0" to="174297153#1"/>
    <trip id="veh122" type="veh_passenger" depart="402.05" departLane="best" from="28489777#0" to="28210668"/>
    <trip id="veh123" type="veh_passenger" depart="405.35" departLane="best" departSpeed="max" from="97894990#0" to="97874836#6"/>
    <trip id="veh124" type="veh_passenger" depart="408.65" departLane="best" from="28489777#2" to="1134551655#1"/>
    <trip id="veh126" type="veh_passenger" depart="415.24" departLane="best" from="628997820" to="628997828#0"/>
    <trip id="veh127" type="veh_passenger" depart="418.53" departLane="best" departSpeed="max" from="22875804#0" to="-97894990#4"/>
    <trip id="veh128" type="veh_passenger" depart="421.83" departLane="best" from="501488254" to="47713340"/>
    <trip id="veh129" type="veh_passenger" depart="425.12" departLane="best" departSpeed="max" from="41579498#0" to="97874836#0"/>
    <trip id="veh130" type="veh_passenger" depart="428.42" departLane="best" from="41867845#1" to="-120925519"/>
    <trip id="veh131" type="veh_passenger" depart="431.71" departLane="best" from="-340820167" to="174297153#0"/>
    <trip id="veh132" type="veh_passenger" depart="435.01" departLane="best" from="41867845#5" to="812798732#1"/>
    <trip id="veh133" type="veh_passenger" depart="438.31" departLane="best" from="628258191#4" to="-43634578"/>
    <trip id="veh134" type="veh_passenger" depart="441.60" departLane="best" from="-45552382#2" to="359639559#0"/>
    <trip id="veh135" type="veh_passenger" depart="444.90" departLane="best" from="157167523#0" to="41589113#0"/>
    <trip id="veh136" type="veh_passenger" depart="448.19" departLane="best" from="480225727#4" to="1124147870#0"/>
    <trip id="veh137" type="veh_passenger" depart="451.49" departLane="best" from="41698387#0" to="-157167540#1"/>
    <trip id="veh138" type="veh_passenger" depart="454.78" departLane="best" from="28463162" to="-65498445#3"/>
    <trip id="veh139" type="veh_passenger" depart="458.08" departLane="best" from="627566671#1" to="-359617709#1"/>
    <trip id="veh141" type="veh_passenger" depart="464.67" departLane="best" from="41698387#1" to="-157167535#1"/>
    <trip id="veh142" type="veh_passenger" depart="467.97" departLane="best" from="22934853" to="-123087528"/>
    <trip id="veh143" type="veh_passenger" depart="471.26" departLane="best" from="-340820167" to="628997833#0"/>
    <trip id="veh144" type="veh_passenger" depart="474.56" departLane="best" from="-630336882#1" to="340821944#0"/>
    <trip id="veh146" type="veh_passenger" depart="481.15" departLane="best" from="171880887#0" to="65495088#1"/>
    <trip id="veh147" type="veh_passenger" depart="484.44" departLane="best" from="620645591#3" to="628258228#1"/>
    <trip id="veh148" type="veh_passenger" depart="487.74" departLane="best" departSpeed="max" from="628997830" to="1124251782#4"/>
    <trip id="veh149" type="veh_passenger" depart="491.03" departLane="best" from="124047874" to="41578898#6"/>
    <trip id="veh150" type="veh_passenger" depart="494.33" departLane="best" from="59464853#6" to="628997833#2"/>
    <trip id="veh151" type="veh_passenger" depart="497.63" departLane="best" departSpeed="max" from="-833485961" to="810886159"/>
    <trip id="veh152" type="veh_passenger" depart="500.92" departLane="best" from="628258201#1" to="914263280#0"/>
    <trip id="veh153" type="veh_passenger" depart="504.22" departLane="best" from="623203027" to="628997831"/>
    <trip id="veh154" type="veh_passenger" depart="507.51" departLane="best" from="-148008504#1" to="542617859#0"/>
    <trip id="veh155" type="veh_passenger" depart="510.81" departLane="best" departSpeed="max" from="174482537" to="810886159"/>
    <trip id="veh156" type="veh_passenger" depart="514.10" departLane="best" from="623203027" to="157167547"/>
    <trip id="veh157" type="veh_passenger" depart="517.40" departLane="best" from="620645591#0" to="-41789689"/>
    <trip id="veh158" type="veh_passenger" depart="520.69" departLane="best" from="628383717" to="628258227"/>
    <trip id="veh159" type="veh_passenger" depart="523.99" departLane="best" from="-123403718#0" to="623203038#2"/>
    <trip id="veh160" type="veh_passenger" depart="527.28" departLane="best" from="25338421" to="174299182#4"/>
    <trip id="veh161" type="veh_passenger" depart="530.58" departLane="best" from="620645591#3" to="123403744#0"/>
    <trip id="veh162" type="veh_passenger" depart="533.88" departLane="best" from="124047874" to="1117879246"/>
    <trip id="veh163" type="veh_passenger" depart="537.17" departLane="best" from="-174299182#2" to="628383721"/>
    <trip id="veh164" type="veh_passenger" depart="540.47" departLane="best" from="901097952" to="166310869#0"/>
    <trip id="veh165" type="veh_passenger" depart="543.76" departLane="best" from="41789689" to="22926407#1"/>
    <trip id="veh166" type="veh_passenger" depart="547.06" departLane="best" from="97874836#0" to="308541555"/>
    <trip id="veh167" type="veh_passenger" depart="550.35" departLane="best" departSpeed="max" from="810886156#0" to="-43634578"/>
    <trip id="veh168" type="veh_passenger" depart="553.65" departLane="best" from="902623938#0" to="1030410636"/>
    <trip id="veh169" type="veh_passenger" depart="556.94" departLane="best" departSpeed="max" from="900496114" to="157167543"/>
    <trip id="veh170" type="veh_passenger" depart="560.24" departLane="best" from="-456074015" to="25338379#3"/>
    <trip id="veh171" type="veh_passenger" depart="563.54" departLane="best" from="53365296#1" to="185201418"/>
    <trip id="veh172" type="veh_passenger" depart="566.83" departLane="best" from="41578898#6" to="28489780"/>
    <trip id="veh174" type="veh_passenger" depart="573.42" departLane="best" from="144717111#2" to="47713342#1"/>
    <trip id="veh175" type="veh_passenger" depart="576.72" departLane="best" departSpeed="max" from="-1085322440#1" to="810730255#0"/>
    <trip id="veh176" type="veh_passenger" depart="580.01" departLane="best" departSpeed="max" from="302876659" to="501488260"/>
    <trip id="veh177" type="veh_passenger" depart="583.31" departLane="best" from="542617857" to="43634576#0"/>
    <trip id="veh178" type="veh_passenger" depart="586.60" departLane="best" from="22875794#1" to="-22876130"/>
    <trip id="veh179" type="veh_passenger" depart="589.90" departLane="best" from="41867845#5" to="225469603"/>
    <trip id="veh181" type="veh_passenger" depart="596.49" departLane="best" from="499103345#0" to="174297153#1"/>
    <trip id="veh182" type="veh_passenger" depart="599.79" departLane="best" from="171880892" to="22935128#2"/>
    <trip id="veh183" type="veh_passenger" depart="603.08" departLane="best" from="22876143#2" to="171880895"/>
    <trip id="veh184" type="veh_passenger" depart="606.38" departLane="best" departSpeed="max" from="-60167237" to="25317056"/>
    <trip id="veh186" type="veh_passenger" depart="612.97" departLane="best" from="166428798#2" to="340821944#3"/>
    <trip id="veh187" type="veh_passenger" depart="616.26" departLane="best" from="-1026505459" to="166428798#2"/>
    <trip id="veh189" type="veh_passenger" depart="622.86" departLane="best" from="25317056" to="1134551655#1"/>
    <trip id="veh191" type="veh_passenger" depart="629.45" departLane="best" from="620645591#3" to="827277449"/>
    <trip id="veh193" type="veh_passenger" depart="636.04" departLane="best" from="41698386#0" to="22875794#0"/>
    <trip id="veh194" type="veh_passenger" depart="639.33" departLane="best" from="-340820167" to="558774248#2"/>
    <trip id="veh195" type="veh_passenger" depart="642.63" departLane="best" departSpeed="max" from="41902259#0" to="123403718#2"/>
    <trip id="veh196" type="veh_passenger" depart="645.92" departLane="best" from="123443404" to="28463413#0"/>
    <trip id="veh197" type="veh_passenger" depart="649.22" departLane="best" from="627568355" to="-28225524"/>
    <trip id="veh198" type="veh_passenger" depart="652.52" departLane="best" from="41698387#0" to="418054541"/>
    <trip id="veh199" type="veh_passenger" depart="655.81" departLane="best" from="1124251780" to="456074015"/>
    <trip id="veh200" type="veh_passenger" depart="659.11" departLane="best" from="28463412#0" to="-132480629"/>
    <trip id="veh201" type="veh_passenger" depart="662.40" departLane="best" from="41867845#2" to="-11503698#1"/>
    <trip id="veh202" type="veh_passenger" depart="665.70" departLane="best" from="542728748" to="620645591#0"/>
    <trip id="veh203" type="veh_passenger" depart="668.99" departLane="best" from="45552382#1" to="25323520#0"/>
    <trip id="veh204" type="veh_passenger" depart="672.29" departLane="best" from="1085322438#0" to="871917975"/>
    <trip id="veh205" type="veh_passenger" depart="675.58" departLane="best" departSpeed="max" from="28489778#0" to="174299182#4"/>
    <trip id="veh206" type="veh_passenger" depart="678.88" departLane="best" from="124047871" to="628258186#0"/>
    <trip id="veh207" type="veh_passenger" depart="682.17" departLane="best" from="22875804#2" to="623203026#0"/>
    <trip id="veh208" type="veh_passenger" depart="685.47" departLane="best" departSpeed="max" from="41524801#0" to="833485961"/>
    <trip id="veh209" type="veh_passenger" depart="688.77" departLane="best" departSpeed="max" from="628997829" to="41688618#0"/>
    <trip id="veh210" type="veh_passenger" depart="692.06" departLane="best" from="499103345#0" to="28489780"/>
    <trip id="veh211" type="veh_passenger" depart="695.36" departLane="best" from="623205923" to="340821944#3"/>
    <trip id="veh212" type="veh_passenger" depart="698.65" departLane="best" departSpeed="max" from="628997830" to="542727908#0"/>
    <trip id="veh214" type="veh_passenger" depart="705.24" departLane="best" from="123443408#0" to="41867845#0"/>
    <trip id="veh215" type="veh_passenger" depart="708.54" departLane="best" from="562492752#1" to="28489841#1"/>
    <trip id="veh217" type="veh_passenger" depart="715.13" departLane="best" from="359617709#0" to="166428798#2"/>
    <trip id="veh218" type="veh_passenger" depart="718.43" departLane="best" from="157167523#0" to="208403981#2"/>
    <trip id="veh219" type="veh_passenger" depart="721.72" departLane="best" departSpeed="max" from="302876659" to="-628997819"/>
    <trip id="veh220" type="veh_passenger" depart="725.02" departLane="best" departSpeed="max" from="123403738" to="45552382#0"/>
    <trip id="veh221" type="veh_passenger" depart="728.31" departLane="best" from="-456074015" to="22876060#0"/>
    <trip id="veh222" type="veh_passenger" depart="731.61" departLane="best" from="22876197#0" to="340821943#0"/>
    <trip id="veh223" type="veh_passenger" depart="734.90" departLane="best" from="41698387#1" to="1124251782#0"/>
    <trip id="veh224" type="veh_passenger" depart="738.20" departLane="best" from="22926407#0" to="65495089#4"/>
    <trip id="veh225" type="veh_passenger" depart="741.49" departLane="best" from="628258186#0" to="60167237"/>
    <trip id="veh226" type="veh_passenger" depart="744.79" departLane="best" from="22875804#9" to="-11503698#1"/>
    <trip id="veh227" type="veh_passenger" depart="748.09" departLane="best" from="225469600#1" to="562492752#1"/>
    <trip id="veh228" type="veh_passenger" depart="751.38" departLane="best" from="627568356#0" to="833485961"/>
    <trip id="veh229" type="veh_passenger" depart="754.68" departLane="best" from="22926407#0" to="555456881#4"/>
    <trip id="veh230" type="veh_passenger" depart="757.97" departLane="best" from="308541555" to="208403981#1"/>
    <trip id="veh231" type="veh_passenger" depart="761.27" departLane="best" from="25323520#1" to="-148384173#0"/>
    <trip id="veh232" type="veh_passenger" depart="764.56" departLane="best" departSpeed="max" from="174482537" to="43634582#1"/>
    <trip id="veh233" type="veh_passenger" depart="767.86" departLane="best" from="22876166#0" to="1014620115#0"/>
    <trip id="veh235" type="veh_passenger" depart="774.45" departLane="best" from="166428798#0" to="-148384173#0"/>
    <trip id="veh236" type="veh_passenger" depart="777.75" departLane="best" departSpeed="max" from="22876102" to="359639560#0"/>
    <trip id="veh237" type="veh_passenger" depart="781.04" departLane="best" departSpeed="max" from="-148384173#1" to="41867845#2"/>
    <trip id="veh238" type="veh_passenger" depart="784.34" departLane="best" from="628258191#4" to="-28225525#4"/>
    <trip id="veh239" type="veh_passenger" depart="787.63" departLane="best" departSpeed="max" from="-185201418" to="22876153"/>
    <trip id="veh240" type="veh_passenger" depart="790.93" departLane="best" departSpeed="max" from="11505371" to="225469600#1"/>
    <trip id="veh241" type="veh_passenger" depart="794.22" departLane="best" from="558774248#1" to="22876153"/>
    <trip id="veh242" type="veh_passenger" depart="797.52" departLane="best" from="555456881#0" to="623373024"/>
    <trip id="veh243" type="veh_passenger" depart="800.81" departLane="best" from="131749297#3" to="-28489777#2"/>
    <trip id="veh244" type="veh_passenger" depart="804.11" departLane="best" departSpeed="max" from="-124047870" to="340820165#0"/>
    <trip id="veh245" type="veh_passenger" depart="807.41" departLane="best" departSpeed="max" from="97894990#0" to="22875804#9"/>
    <trip id="veh246" type="veh_passenger" depart="810.70" departLane="best" from="41867845#0" to="620645591#4"/>
    <trip id="veh247" type="veh_passenger" depart="814.00" departLane="best" from="41867845#0" to="562492752#1"/>
    <trip id="veh248" type="veh_passenger" depart="817.29" departLane="best" from="826784037" to="1124146231"/>
    <trip id="veh249" type="veh_passenger" depart="820.59" departLane="best" departSpeed="max" from="-124047870" to="900172404"/>
    <trip id="veh250" type="veh_passenger" depart="823.88" departLane="best" departSpeed="max" from="-60167237" to="43634575#0"/>
    <trip id="veh251" type="veh_passenger" depart="827.18" departLane="best" from="340821944#0" to="118495382"/>
    <trip id="veh252" type="veh_passenger" depart="830.47" departLane="best" from="441137397#1" to="-60167238#0"/>
    <trip id="veh253" type="veh_passenger" depart="833.77" departLane="best" from="1024946477#0" to="41688617#0"/>
    <trip id="veh254" type="veh_passenger" depart="837.06" departLane="best" from="542725034#0" to="-43634578"/>
    <trip id="veh255" type="veh_passenger" depart="840.36" departLane="best" from="623203038#0" to="897216005"/>
    <trip id="veh256" type="veh_passenger" depart="843.66" departLane="best" from="-456074015" to="-148384173#0"/>
    <trip id="veh257" type="veh_passenger" depart="846.95" departLane="best" from="171880886" to="43634581"/>
    <trip id="veh258" type="veh_passenger" depart="850.25" departLane="best" from="900172404" to="22926407#0"/>
    <trip id="veh259" type="veh_passenger" depart="853.54" departLane="best" from="47713342#1" to="-28489656#2"/>
    <trip id="veh260" type="veh_passenger" depart="856.84" departLane="best" departSpeed="max" from="43634578" to="-41789689"/>