<?xml version="1.0" encoding="UTF-8"?>

<!-- generated on 2023-03-08 15:31:21 by Eclipse SUMO netedit Version v1_15_0+0596-65718631903
<configuration xmlns:xsi="http://www.w3.org/2001/XMLSchema-instance" xsi:noNamespaceSchemaLocation="http://sumo.dlr.de/xsd/netconvertConfiguration.xsd">

    <input>
        <sumo-net-file value="./data/networkFiles/bilbao/osm.net.xml"/>
    </input>

    <output>
        <output-file value="./data/networkFiles/bilbao/osm.net.xml"/>
        <output.street-names value="true"/>
    </output>

    <processing>
        <geometry.min-radius.fix.railways value="false"/>
        <geometry.max-grade.fix value="false"/>
        <offset.disable-normalization value="true"/>
        <lefthand value="0"/>
    </processing>

    <junctions>
        <no-turnarounds value="true"/>
        <junctions.corner-detail value="5"/>
        <junctions.limit-turn-speed value="5.50"/>
        <rectangular-lane-cut value="0"/>
    </junctions>

    <pedestrian>
        <walkingareas value="0"/>
    </pedestrian>

</configuration>
-->

<net version="1.9" junctionCornerDetail="5" limitTurnSpeed="5.50" xmlns:xsi="http://www.w3.org/2001/XMLSchema-instance" xsi:noNamespaceSchemaLocation="http://sumo.dlr.de/xsd/net_file.xsd">

    <location netOffset="328024.41,-5351185.43" convBoundary="0.00,0.00,3333.86,1984.50" origBoundary="-2.967866,43.246409,-2.916266,43.283929" projParameter="+proj=merc +a=6378137 +b=6378137 +lat_ts=0.0 +lon_0=0.0 +x_0=0.0 +y_0=0 +k=1.0 +units=m +nadgrids=@null +wktext +no_defs"/>

    <type id="highway.bridleway" priority="1" numLanes="1" speed="2.78" allow="pedestrian" oneway="1" width="2.00"/>
    <type id="highway.bus_guideway" priority="1" numLanes="1" speed="27.78" allow="bus" oneway="1"/>
    <type id="highway.cycleway" priority="1" numLanes="1" speed="5.56" allow="bicycle" oneway="0" width="1.00"/>
    <type id="highway.footway" priority="1" numLanes="1" speed="2.78" allow="pedestrian" oneway="1" width="2.00"/>
    <type id="highway.ford" priority="1" numLanes="1" speed="2.78" allow="army" oneway="0"/>
    <type id="highway.living_street" priority="2" numLanes="1" speed="2.78" disallow="tram rail_urban rail rail_electric rail_fast ship" oneway="0"/>
    <type id="highway.motorway" priority="14" numLanes="2" speed="39.44" allow="private emergency authority army vip passenger hov taxi bus coach delivery truck trailer motorcycle evehicle custom1 custom2" oneway="1"/>
    <type id="highway.motorway_link" priority="9" numLanes="1" speed="22.22" allow="private emergency authority army vip passenger hov taxi bus coach delivery truck trailer motorcycle evehicle custom1 custom2" oneway="1"/>
    <type id="highway.path" priority="1" numLanes="1" speed="5.56" allow="pedestrian bicycle" oneway="0" width="2.00"/>
    <type id="highway.pedestrian" priority="1" numLanes="1" speed="2.78" allow="pedestrian" oneway="1" width="2.00"/>
    <type id="highway.primary" priority="12" numLanes="2" speed="27.78" disallow="tram rail_urban rail rail_electric rail_fast ship" oneway="0"/>
    <type id="highway.primary_link" priority="7" numLanes="1" speed="22.22" disallow="tram rail_urban rail rail_electric rail_fast ship" oneway="0"/>
    <type id="highway.raceway" priority="15" numLanes="2" speed="83.33" allow="vip" oneway="0"/>
    <type id="highway.residential" priority="3" numLanes="1" speed="13.89" disallow="tram rail_urban rail rail_electric rail_fast ship" oneway="0"/>
    <type id="highway.secondary" priority="11" numLanes="1" speed="27.78" disallow="tram rail_urban rail rail_electric rail_fast ship" oneway="0"/>
    <type id="highway.secondary_link" priority="6" numLanes="1" speed="22.22" disallow="tram rail_urban rail rail_electric rail_fast ship" oneway="0"/>
    <type id="highway.service" priority="1" numLanes="1" speed="5.56" allow="pedestrian delivery bicycle" oneway="0"/>
    <type id="highway.stairs" priority="1" numLanes="1" speed="1.39" allow="pedestrian" oneway="1" width="2.00"/>
    <type id="highway.step" priority="1" numLanes="1" speed="1.39" allow="pedestrian" oneway="1" width="2.00"/>
    <type id="highway.steps" priority="1" numLanes="1" speed="1.39" allow="pedestrian" oneway="1" width="2.00"/>
    <type id="highway.tertiary" priority="10" numLanes="1" speed="22.22" disallow="tram rail_urban rail rail_electric rail_fast ship" oneway="0"/>
    <type id="highway.tertiary_link" priority="5" numLanes="1" speed="22.22" disallow="tram rail_urban rail rail_electric rail_fast ship" oneway="0"/>
    <type id="highway.track" priority="1" numLanes="1" speed="5.56" allow="pedestrian motorcycle moped bicycle" oneway="0"/>
    <type id="highway.trunk" priority="13" numLanes="2" speed="27.78" disallow="pedestrian bicycle tram rail_urban rail rail_electric rail_fast ship" oneway="0"/>
    <type id="highway.trunk_link" priority="8" numLanes="1" speed="22.22" disallow="pedestrian bicycle tram rail_urban rail rail_electric rail_fast ship" oneway="0"/>
    <type id="highway.unclassified" priority="4" numLanes="1" speed="13.89" disallow="tram rail_urban rail rail_electric rail_fast ship" oneway="0"/>
    <type id="highway.unsurfaced" priority="1" numLanes="1" speed="8.33" disallow="tram rail_urban rail rail_electric rail_fast ship" oneway="0"/>
    <type id="railway.highspeed" priority="21" numLanes="1" speed="69.44" allow="rail_fast" oneway="1"/>
    <type id="railway.light_rail" priority="19" numLanes="1" speed="27.78" allow="rail_urban" oneway="1"/>
    <type id="railway.preserved" priority="16" numLanes="1" speed="27.78" allow="rail" oneway="1"/>
    <type id="railway.rail" priority="20" numLanes="1" speed="44.44" allow="rail" oneway="1"/>
    <type id="railway.subway" priority="18" numLanes="1" speed="27.78" allow="rail_urban" oneway="1"/>
    <type id="railway.tram" priority="17" numLanes="1" speed="13.89" allow="tram" oneway="1"/>

    <edge id=":10280189299_0" function="internal">
        <lane id=":10280189299_0_0" index="0" disallow="tram rail_urban rail rail_electric rail_fast ship" speed="6.95" length="3.69" shape="1372.12,873.08 1372.80,873.93 1373.33,874.47 1373.96,874.89 1374.92,875.40"/>
    </edge>
    <edge id=":10280189299_1" function="internal">
        <lane id=":10280189299_1_0" index="0" disallow="tram rail_urban rail rail_electric rail_fast ship" speed="8.33" length="3.91" shape="1369.58,875.03 1370.36,876.03 1370.88,876.74 1371.27,877.52 1371.70,878.70"/>
        <lane id=":10280189299_1_1" index="1" disallow="tram rail_urban rail rail_electric rail_fast ship" speed="8.33" length="3.91" shape="1367.04,876.98 1367.68,877.81 1368.10,878.40 1368.41,879.04 1368.77,880.03"/>
    </edge>
    <edge id=":10280189302_0" function="internal">
        <lane id=":10280189302_0_0" index="0" disallow="tram rail_urban rail rail_electric rail_fast ship" speed="5.56" length="12.55" shape="1393.50,880.99 1390.25,881.88 1387.41,882.60 1384.65,883.49 1381.62,884.92"/>
    </edge>
    <edge id=":10280189302_1" function="internal">
        <lane id=":10280189302_1_0" index="0" disallow="tram rail_urban rail rail_electric rail_fast ship" speed="3.65" length="4.67" shape="1393.50,880.99 1392.12,880.57 1391.51,879.92 1391.66,879.04 1392.57,877.92"/>
    </edge>
    <edge id=":10280189302_2" function="internal">
        <lane id=":10280189302_2_0" index="0" disallow="tram rail_urban rail rail_electric rail_fast ship" speed="5.56" length="6.08" shape="1386.56,878.23 1388.36,878.37 1389.61,878.46 1390.84,878.36 1392.57,877.92"/>
    </edge>
    <edge id=":10280189302_3" function="internal">
        <lane id=":10280189302_3_0" index="0" disallow="tram rail_urban rail rail_electric rail_fast ship" speed="5.56" length="12.13" shape="1386.56,878.23 1388.75,878.77 1388.65,880.07 1386.28,882.11 1381.62,884.92"/>
    </edge>
    <edge id=":10280898861_0" function="internal">
        <lane id=":10280898861_0_0" index="0" disallow="tram rail_urban rail rail_electric rail_fast ship" speed="6.52" length="8.99" shape="274.95,730.55 273.91,728.31 272.41,726.92 270.45,726.40 268.02,726.73"/>
    </edge>
    <edge id=":10280898861_1" function="internal">
        <lane id=":10280898861_1_0" index="0" disallow="tram rail_urban rail rail_electric rail_fast ship" speed="8.33" length="14.48" shape="278.01,729.63 276.54,725.61 275.17,723.00 273.79,720.38 272.30,716.37"/>
        <lane id=":10280898861_1_1" index="1" disallow="tram rail_urban rail rail_electric rail_fast ship" speed="8.33" length="14.48" shape="281.08,728.71 279.60,724.68 278.23,722.06 276.85,719.44 275.35,715.43"/>
    </edge>
    <edge id=":10280898861_3" function="internal">
        <lane id=":10280898861_3_0" index="0" disallow="tram rail_urban rail rail_electric rail_fast ship" speed="8.33" length="17.45" shape="284.78,721.79 268.02,726.73"/>
        <lane id=":10280898861_3_1" index="1" disallow="tram rail_urban rail rail_electric rail_fast ship" speed="8.33" length="17.45" shape="283.86,718.73 267.14,723.66"/>
    </edge>
    <edge id=":10280898861_5" function="internal">
        <lane id=":10280898861_5_0" index="0" disallow="tram rail_urban rail rail_electric rail_fast ship" speed="6.93" length="10.34" shape="283.86,718.73 280.76,719.30 278.31,718.94 276.51,717.65 275.35,715.43"/>
    </edge>
    <edge id=":10280898864_0" function="internal">
        <lane id=":10280898864_0_0" index="0" disallow="tram rail_urban rail rail_electric rail_fast ship" speed="8.33" length="11.22" shape="745.33,739.12 742.13,728.37"/>
    </edge>
    <edge id=":10280898864_1" function="internal">
        <lane id=":10280898864_1_0" index="0" disallow="tram rail_urban rail rail_electric rail_fast ship" speed="7.36" length="2.51" shape="745.33,739.12 745.17,736.61"/>
    </edge>
    <edge id=":10280898864_2" function="internal">
        <lane id=":10280898864_2_0" index="0" disallow="tram rail_urban rail rail_electric rail_fast ship" speed="3.65" length="1.44" shape="745.33,739.12 745.76,737.74"/>
    </edge>
    <edge id=":10280898864_9" function="internal">
        <lane id=":10280898864_9_0" index="0" disallow="tram rail_urban rail rail_electric rail_fast ship" speed="7.36" length="9.25" shape="745.17,736.61 746.25,734.45 748.59,732.64 752.17,731.17"/>
    </edge>
    <edge id=":10280898864_10" function="internal">
        <lane id=":10280898864_10_0" index="0" disallow="tram rail_urban rail rail_electric rail_fast ship" speed="3.65" length="3.23" shape="745.76,737.74 746.42,737.13 747.30,737.29 748.40,738.21"/>
    </edge>
    <edge id=":10280898864_3" function="internal">
        <lane id=":10280898864_3_0" index="0" disallow="tram rail_urban rail rail_electric rail_fast ship" speed="6.49" length="9.03" shape="745.20,727.45 746.24,729.69 747.75,731.06 749.72,731.56 752.17,731.17"/>
    </edge>
    <edge id=":10280898864_4" function="internal">
        <lane id=":10280898864_4_0" index="0" disallow="tram rail_urban rail rail_electric rail_fast ship" speed="8.33" length="11.24" shape="745.20,727.45 748.40,738.21"/>
    </edge>
    <edge id=":10280898864_5" function="internal">
        <lane id=":10280898864_5_0" index="0" disallow="tram rail_urban rail rail_electric rail_fast ship" speed="3.65" length="1.44" shape="745.20,727.45 744.77,728.83"/>
    </edge>
    <edge id=":10280898864_11" function="internal">
        <lane id=":10280898864_11_0" index="0" disallow="tram rail_urban rail rail_electric rail_fast ship" speed="3.65" length="3.23" shape="744.77,728.83 744.12,729.44 743.24,729.29 742.13,728.37"/>
    </edge>
    <edge id=":10280898864_6" function="internal">
        <lane id=":10280898864_6_0" index="0" disallow="tram rail_urban rail rail_electric rail_fast ship" speed="6.51" length="9.04" shape="738.38,735.35 740.62,734.31 742.00,732.80 742.50,730.82 742.13,728.37"/>
    </edge>
    <edge id=":10280898864_7" function="internal">
        <lane id=":10280898864_7_0" index="0" disallow="tram rail_urban rail rail_electric rail_fast ship" speed="8.33" length="14.41" shape="738.38,735.35 752.17,731.17"/>
    </edge>
    <edge id=":10280898864_8" function="internal">
        <lane id=":10280898864_8_0" index="0" disallow="tram rail_urban rail rail_electric rail_fast ship" speed="7.32" length="11.73" shape="738.38,735.35 742.17,734.58 745.10,734.81 747.18,736.02 748.40,738.21"/>
    </edge>
    <edge id=":10280898866_0" function="internal">
        <lane id=":10280898866_0_0" index="0" disallow="tram rail_urban rail rail_electric rail_fast ship" speed="6.54" length="9.06" shape="703.86,602.32 702.80,600.07 701.28,598.69 699.30,598.18 696.85,598.55"/>
    </edge>
    <edge id=":10280898866_1" function="internal">
        <lane id=":10280898866_1_0" index="0" disallow="tram rail_urban rail rail_electric rail_fast ship" speed="3.65" length="1.44" shape="703.86,602.32 704.27,600.94"/>
    </edge>
    <edge id=":10280898866_5" function="internal">
        <lane id=":10280898866_5_0" index="0" disallow="tram rail_urban rail rail_electric rail_fast ship" speed="3.65" length="3.23" shape="704.27,600.94 704.92,600.32 705.80,600.47 706.92,601.38"/>
    </edge>
    <edge id=":10280898866_2" function="internal">
        <lane id=":10280898866_2_0" index="0" disallow="tram rail_urban rail rail_electric rail_fast ship" speed="6.54" length="9.01" shape="710.63,594.37 708.39,595.46 707.03,596.99 706.54,598.96 706.92,601.38"/>
    </edge>
    <edge id=":10280898866_3" function="internal">
        <lane id=":10280898866_3_0" index="0" disallow="tram rail_urban rail rail_electric rail_fast ship" speed="8.33" length="14.38" shape="710.63,594.37 696.85,598.55"/>
        <lane id=":10280898866_3_1" index="1" disallow="tram rail_urban rail rail_electric rail_fast ship" speed="8.33" length="14.38" shape="709.69,591.31 695.94,595.48"/>
    </edge>
    <edge id=":1112600319_0" function="internal">
        <lane id=":1112600319_0_0" index="0" disallow="tram rail_urban rail rail_electric rail_fast ship" speed="13.89" length="0.10" shape="3094.44,1699.54 3094.44,1699.54"/>
    </edge>
    <edge id=":1120060538_0" function="internal">
        <lane id=":1120060538_0_0" index="0" disallow="tram rail_urban rail rail_electric rail_fast ship" speed="11.11" length="5.44" shape="1069.22,1495.43 1067.67,1495.05 1066.57,1494.98 1065.45,1495.11 1063.85,1495.34"/>
    </edge>
    <edge id=":1120060538_1" function="internal">
        <lane id=":1120060538_1_0" index="0" disallow="tram rail_urban rail rail_electric rail_fast ship" speed="3.65" length="1.44" shape="1069.22,1495.43 1068.29,1494.32"/>
    </edge>
    <edge id=":1120060538_3" function="internal">
        <lane id=":1120060538_3_0" index="0" disallow="tram rail_urban rail rail_electric rail_fast ship" speed="3.65" length="3.23" shape="1068.29,1494.32 1068.14,1493.44 1068.75,1492.79 1070.12,1492.36"/>
    </edge>
    <edge id=":1120060538_2" function="internal">
        <lane id=":1120060538_2_0" index="0" disallow="tram rail_urban rail rail_electric rail_fast ship" speed="11.11" length="15.59" shape="1055.22,1487.79 1058.83,1489.10 1062.61,1490.25 1066.42,1491.32 1070.12,1492.36"/>
    </edge>
    <edge id=":1132519569_0" function="internal">
        <lane id=":1132519569_0_0" index="0" disallow="tram rail_urban rail rail_electric rail_fast ship" speed="2.78" length="0.10" shape="2641.79,435.45 2641.79,435.45"/>
    </edge>
    <edge id=":1132519581_0" function="internal">
        <lane id=":1132519581_0_0" index="0" disallow="tram rail_urban rail rail_electric rail_fast ship" speed="13.89" length="11.08" shape="2609.71,429.19 2608.18,426.52 2607.00,424.73 2605.52,423.23 2603.08,421.38"/>
        <lane id=":1132519581_0_1" index="1" disallow="tram rail_urban rail rail_electric rail_fast ship" speed="13.89" length="11.08" shape="2612.48,427.59 2610.73,424.56 2609.39,422.55 2607.70,420.85 2604.92,418.77"/>
    </edge>
    <edge id=":1132519581_2" function="internal">
        <lane id=":1132519581_2_0" index="0" disallow="tram rail_urban rail rail_electric rail_fast ship" speed="5.61" length="5.05" shape="2612.48,427.59 2610.65,423.84 2610.65,422.96"/>
    </edge>
    <edge id=":1132519581_5" function="internal">
        <lane id=":1132519581_5_0" index="0" disallow="tram rail_urban rail rail_electric rail_fast ship" speed="5.61" length="6.90" shape="2610.65,422.96 2610.64,422.03 2612.45,422.16 2616.07,424.21"/>
    </edge>
    <edge id=":1132519581_3" function="internal">
        <lane id=":1132519581_3_0" index="0" disallow="tram rail_urban rail rail_electric rail_fast ship" speed="13.89" length="12.32" shape="2606.77,416.15 2609.36,418.24 2611.39,420.22 2613.44,422.19 2616.07,424.21"/>
    </edge>
    <edge id=":1132519581_4" function="internal">
        <lane id=":1132519581_4_0" index="0" disallow="tram rail_urban rail rail_electric rail_fast ship" speed="3.65" length="1.44" shape="2606.77,416.15 2607.29,417.50"/>
    </edge>
    <edge id=":1132519581_6" function="internal">
        <lane id=":1132519581_6_0" index="0" disallow="tram rail_urban rail rail_electric rail_fast ship" speed="3.65" length="3.23" shape="2607.29,417.50 2607.15,418.38 2606.37,418.81 2604.92,418.77"/>
    </edge>
    <edge id=":1132828019_0" function="internal">
        <lane id=":1132828019_0_0" index="0" disallow="tram rail_urban rail rail_electric rail_fast ship" speed="8.33" length="5.32" shape="1919.11,1284.15 1917.65,1284.75 1916.67,1285.27 1915.89,1286.02 1915.02,1287.31"/>
    </edge>
    <edge id=":1132828019_1" function="internal">
        <lane id=":1132828019_1_0" index="0" disallow="tram rail_urban rail rail_electric rail_fast ship" speed="6.85" length="5.05" shape="1915.08,1282.42 1915.50,1283.83 1915.63,1285.11 1915.47,1286.27 1915.02,1287.31"/>
    </edge>
    <edge id=":1132828029_0" function="internal">
        <lane id=":1132828029_0_0" index="0" disallow="tram rail_urban rail rail_electric rail_fast ship" speed="6.51" length="9.01" shape="1965.46,1077.31 1964.94,1079.72 1965.31,1081.72 1966.58,1083.31 1968.74,1084.50"/>
    </edge>
    <edge id=":1132828029_1" function="internal">
        <lane id=":1132828029_1_0" index="0" disallow="tram rail_urban rail rail_electric rail_fast ship" speed="8.33" length="17.12" shape="1965.46,1077.31 1964.70,1081.26 1964.62,1085.76 1964.62,1090.29 1964.10,1094.32"/>
    </edge>
    <edge id=":1132828029_2" function="internal">
        <lane id=":1132828029_2_0" index="0" disallow="tram rail_urban rail rail_electric rail_fast ship" speed="8.33" length="17.71" shape="1965.46,1077.31 1958.86,1093.74"/>
    </edge>
    <edge id=":1132828029_3" function="internal">
        <lane id=":1132828029_3_0" index="0" disallow="tram rail_urban rail rail_electric rail_fast ship" speed="3.65" length="1.44" shape="1965.46,1077.31 1964.29,1078.15"/>
    </edge>
    <edge id=":1132828029_8" function="internal">
        <lane id=":1132828029_8_0" index="0" disallow="tram rail_urban rail rail_electric rail_fast ship" speed="3.65" length="3.23" shape="1964.29,1078.15 1963.41,1078.25 1962.80,1077.59 1962.46,1076.19"/>
    </edge>
    <edge id=":1132828029_4" function="internal">
        <lane id=":1132828029_4_0" index="0" disallow="tram rail_urban rail rail_electric rail_fast ship" speed="8.33" length="17.59" shape="1955.90,1092.51 1962.46,1076.19"/>
    </edge>
    <edge id=":1132828029_5" function="internal">
        <lane id=":1132828029_5_0" index="0" disallow="tram rail_urban rail rail_electric rail_fast ship" speed="8.33" length="5.44" shape="1955.90,1092.51 1958.44,1087.85 1958.53,1087.75"/>
    </edge>
    <edge id=":1132828029_6" function="internal">
        <lane id=":1132828029_6_0" index="0" disallow="tram rail_urban rail rail_electric rail_fast ship" speed="5.29" length="1.93" shape="1955.90,1092.51 1957.28,1091.16"/>
    </edge>
    <edge id=":1132828029_7" function="internal">
        <lane id=":1132828029_7_0" index="0" disallow="tram rail_urban rail rail_electric rail_fast ship" speed="3.65" length="1.44" shape="1955.90,1092.51 1957.10,1091.71"/>
    </edge>
    <edge id=":1132828029_9" function="internal">
        <lane id=":1132828029_9_0" index="0" disallow="tram rail_urban rail rail_electric rail_fast ship" speed="8.33" length="11.57" shape="1958.53,1087.75 1961.42,1084.96 1964.85,1083.84 1968.74,1084.50"/>
    </edge>
    <edge id=":1132828029_10" function="internal">
        <lane id=":1132828029_10_0" index="0" disallow="tram rail_urban rail rail_electric rail_fast ship" speed="5.29" length="9.86" shape="1957.28,1091.16 1958.11,1090.34 1961.13,1090.12 1963.59,1091.54 1964.10,1094.32"/>
    </edge>
    <edge id=":1132828029_11" function="internal">
        <lane id=":1132828029_11_0" index="0" disallow="tram rail_urban rail rail_electric rail_fast ship" speed="3.65" length="3.23" shape="1957.10,1091.71 1957.99,1091.65 1958.58,1092.32 1958.86,1093.74"/>
    </edge>
    <edge id=":1132828082_0" function="internal">
        <lane id=":1132828082_0_0" index="0" disallow="tram rail_urban rail rail_electric rail_fast ship" speed="10.59" length="6.48" shape="1913.58,1289.66 1912.74,1291.33 1912.50,1292.61 1912.60,1293.98 1912.76,1295.91"/>
    </edge>
    <edge id=":1132828082_1" function="internal">
        <lane id=":1132828082_1_0" index="0" disallow="tram rail_urban rail rail_electric rail_fast ship" speed="11.11" length="6.52" shape="1913.58,1289.66 1912.51,1291.24 1911.59,1292.19 1910.50,1292.98 1908.93,1294.11"/>
    </edge>
    <edge id=":1132828121_0" function="internal">
        <lane id=":1132828121_0_0" index="0" disallow="tram rail_urban rail rail_electric rail_fast ship" speed="8.33" length="12.27" shape="1972.86,1053.48 1972.16,1056.73 1971.44,1059.45 1970.62,1062.14 1969.61,1065.31"/>
    </edge>
    <edge id=":1132828121_1" function="internal">
        <lane id=":1132828121_1_0" index="0" disallow="tram rail_urban rail rail_electric rail_fast ship" speed="8.33" length="2.07" shape="1972.86,1053.48 1971.93,1055.15 1971.80,1055.24"/>
    </edge>
    <edge id=":1132828121_2" function="internal">
        <lane id=":1132828121_2_0" index="0" disallow="tram rail_urban rail rail_electric rail_fast ship" speed="3.65" length="1.44" shape="1972.86,1053.48 1971.84,1054.50"/>
    </edge>
    <edge id=":1132828121_6" function="internal">
        <lane id=":1132828121_6_0" index="0" disallow="tram rail_urban rail rail_electric rail_fast ship" speed="8.33" length="10.77" shape="1971.80,1055.24 1969.80,1056.70 1966.48,1058.13 1961.98,1059.44"/>
    </edge>
    <edge id=":1132828121_7" function="internal">
        <lane id=":1132828121_7_0" index="0" disallow="tram rail_urban rail rail_electric rail_fast ship" speed="3.65" length="3.23" shape="1971.84,1054.50 1970.98,1054.74 1970.28,1054.19 1969.72,1052.86"/>
    </edge>
    <edge id=":1132828121_3" function="internal">
        <lane id=":1132828121_3_0" index="0" disallow="tram rail_urban rail rail_electric rail_fast ship" speed="5.64" length="9.27" shape="1966.56,1064.34 1967.05,1061.58 1966.45,1059.85 1964.76,1059.13 1961.98,1059.44"/>
    </edge>
    <edge id=":1132828121_4" function="internal">
        <lane id=":1132828121_4_0" index="0" disallow="tram rail_urban rail rail_electric rail_fast ship" speed="8.33" length="11.92" shape="1966.56,1064.34 1967.56,1061.22 1968.34,1058.65 1969.03,1056.05 1969.72,1052.86"/>
    </edge>
    <edge id=":1132828121_5" function="internal">
        <lane id=":1132828121_5_0" index="0" disallow="tram rail_urban rail rail_electric rail_fast ship" speed="3.65" length="1.44" shape="1966.56,1064.34 1967.68,1063.44"/>
    </edge>
    <edge id=":1132828121_8" function="internal">
        <lane id=":1132828121_8_0" index="0" disallow="tram rail_urban rail rail_electric rail_fast ship" speed="3.65" length="3.23" shape="1967.68,1063.44 1968.57,1063.30 1969.21,1063.92 1969.61,1065.31"/>
    </edge>
    <edge id=":120060344_0" function="internal">
        <lane id=":120060344_0_0" index="0" disallow="tram rail_urban rail rail_electric rail_fast ship" speed="3.65" length="4.67" shape="1732.68,1918.44 1731.24,1918.46 1730.46,1918.02 1730.34,1917.14 1730.88,1915.80"/>
    </edge>
    <edge id=":1332645527_0" function="internal">
        <lane id=":1332645527_0_0" index="0" disallow="tram rail_urban rail rail_electric rail_fast ship" speed="11.11" length="3.78" shape="1512.51,1637.93 1516.10,1639.11"/>
    </edge>
    <edge id=":1332645527_1" function="internal">
        <lane id=":1332645527_1_0" index="0" disallow="tram rail_urban rail rail_electric rail_fast ship" speed="11.11" length="3.79" shape="1517.11,1636.07 1513.51,1634.89"/>
    </edge>
    <edge id=":1332645529_0" function="internal">
        <lane id=":1332645529_0_0" index="0" disallow="tram rail_urban rail rail_electric rail_fast ship" speed="13.89" length="0.24" shape="1524.64,1662.26 1524.55,1661.97"/>
        <lane id=":1332645529_0_1" index="1" disallow="tram rail_urban rail rail_electric rail_fast ship" speed="13.89" length="0.24" shape="1527.66,1661.19 1527.60,1661.02"/>
    </edge>
    <edge id=":1332645530_0" function="internal">
        <lane id=":1332645530_0_0" index="0" disallow="tram rail_urban rail rail_electric rail_fast ship" speed="13.89" length="7.99" shape="1536.27,1657.82 1537.24,1659.89 1538.27,1661.12 1539.35,1662.33 1540.47,1664.34"/>
        <lane id=":1332645530_0_1" index="1" disallow="tram rail_urban rail rail_electric rail_fast ship" speed="13.89" length="7.99" shape="1533.24,1658.86 1534.24,1660.98 1535.28,1662.26 1536.38,1663.51 1537.52,1665.58"/>
        <lane id=":1332645530_0_2" index="2" disallow="tram rail_urban rail rail_electric rail_fast ship" speed="13.89" length="7.99" shape="1533.24,1658.86 1533.78,1661.19 1533.81,1662.88 1533.88,1664.55 1534.57,1666.83"/>
    </edge>
    <edge id=":1364605710_0" function="internal">
        <lane id=":1364605710_0_0" index="0" disallow="tram rail_urban rail rail_electric rail_fast ship" speed="13.89" length="0.10" shape="245.89,1228.12 245.84,1228.13"/>
        <lane id=":1364605710_0_1" index="1" disallow="tram rail_urban rail rail_electric rail_fast ship" speed="13.89" length="0.10" shape="245.01,1225.04 244.87,1225.08"/>
    </edge>
    <edge id=":1364605710_2" function="internal">
        <lane id=":1364605710_2_0" index="0" disallow="tram rail_urban rail rail_electric rail_fast ship" speed="13.89" length="0.40" shape="242.99,1219.23 243.25,1218.88"/>
        <lane id=":1364605710_2_1" index="1" disallow="tram rail_urban rail rail_electric rail_fast ship" speed="13.89" length="0.40" shape="243.97,1222.29 244.13,1221.96"/>
    </edge>
    <edge id=":1376293815_0" function="internal">
        <lane id=":1376293815_0_0" index="0" disallow="tram rail_urban rail rail_electric rail_fast ship" speed="3.65" length="4.67" shape="2958.16,1657.19 2957.88,1658.60 2957.29,1659.28 2956.40,1659.21 2955.20,1658.41"/>
    </edge>
    <edge id=":1376565484_0" function="internal">
        <lane id=":1376565484_0_0" index="0" disallow="tram rail_urban rail rail_electric rail_fast ship" speed="3.93" length="2.21" shape="3168.47,1340.16 3169.05,1340.25 3169.51,1340.49 3169.83,1340.89 3170.03,1341.45"/>
    </edge>
    <edge id=":1376576212_0" function="internal">
        <lane id=":1376576212_0_0" index="0" disallow="tram rail_urban rail rail_electric rail_fast ship" speed="8.33" length="0.45" shape="2889.12,1489.39 2889.08,1489.52 2889.06,1489.61 2889.05,1489.70 2889.04,1489.84"/>
    </edge>
    <edge id=":1376576213_0" function="internal">
        <lane id=":1376576213_0_0" index="0" disallow="tram rail_urban rail rail_electric rail_fast ship" speed="3.65" length="4.67" shape="2957.88,1353.09 2956.55,1352.53 2956.01,1351.82 2956.25,1350.96 2957.28,1349.95"/>
    </edge>
    <edge id=":1381609239_0" function="internal">
        <lane id=":1381609239_0_0" index="0" disallow="tram rail_urban rail rail_electric rail_fast ship" speed="3.65" length="4.67" shape="2867.35,1641.26 2868.75,1641.59 2869.41,1642.20 2869.31,1643.09 2868.47,1644.26"/>
    </edge>
    <edge id=":1381609242_0" function="internal">
        <lane id=":1381609242_0_0" index="0" disallow="tram rail_urban rail rail_electric rail_fast ship" speed="3.65" length="4.67" shape="2957.05,1580.89 2958.47,1581.10 2959.18,1581.66 2959.16,1582.55 2958.41,1583.79"/>
    </edge>
    <edge id=":1519670832_0" function="internal">
        <lane id=":1519670832_0_0" index="0" disallow="tram rail_urban rail rail_electric rail_fast ship" speed="7.04" length="7.90" shape="1366.71,930.71 1365.99,932.77 1365.91,934.68 1366.45,936.43 1367.62,938.02"/>
    </edge>
    <edge id=":1519670832_1" function="internal">
        <lane id=":1519670832_1_0" index="0" disallow="tram rail_urban rail rail_electric rail_fast ship" speed="8.33" length="8.08" shape="1366.71,930.71 1365.50,933.12 1364.52,934.70 1363.31,936.11 1361.41,938.03"/>
        <lane id=":1519670832_1_1" index="1" disallow="tram rail_urban rail rail_electric rail_fast ship" speed="8.33" length="8.08" shape="1363.82,929.32 1362.75,931.46 1361.88,932.85 1360.80,934.10 1359.11,935.81"/>
        <lane id=":1519670832_1_2" index="2" disallow="tram rail_urban rail rail_electric rail_fast ship" speed="8.33" length="8.08" shape="1360.94,927.94 1360.00,929.80 1359.23,931.01 1358.29,932.09 1356.82,933.58"/>
    </edge>
    <edge id=":1828478655_0" function="internal">
        <lane id=":1828478655_0_0" index="0" disallow="tram rail_urban rail rail_electric rail_fast ship" speed="9.84" length="6.91" shape="1705.78,1694.21 1704.18,1695.51 1703.04,1696.46 1702.26,1697.61 1701.74,1699.51"/>
    </edge>
    <edge id=":1828478655_1" function="internal">
        <lane id=":1828478655_1_0" index="0" disallow="tram rail_urban rail rail_electric rail_fast ship" speed="13.89" length="7.12" shape="1701.77,1692.44 1702.05,1694.53 1702.16,1695.98 1702.07,1697.43 1701.74,1699.51"/>
    </edge>
    <edge id=":1828478679_0" function="internal">
        <lane id=":1828478679_0_0" index="0" disallow="tram rail_urban rail rail_electric rail_fast ship" speed="8.33" length="0.29" shape="1743.41,1675.47 1743.12,1675.54"/>
    </edge>