<?xml version="1.0" encoding="UTF-8"?>

<!-- generated on 2022-09-02 09:47:47 by Eclipse SUMO netedit Version 1.12.0
<configuration xmlns:xsi="http://www.w3.org/2001/XMLSchema-instance" xsi:noNamespaceSchemaLocation="http://sumo.dlr.de/xsd/netconvertConfiguration.xsd">

    <input>
        <sumo-net-file value="D:\sumo%20installing\sumo-1.12.0\bin\test.net.xml"/>
    </input>

    <output>
        <output-file value="D:\sumo%20installing\sumo-1.12.0\bin\test.net.xml"/>
    </output>

    <processing>
        <geometry.min-radius.fix.railways value="false"/>
        <geometry.max-grade.fix value="false"/>
        <offset.disable-normalization value="true"/>
        <lefthand value="false"/>
    </processing>

    <junctions>
        <no-turnarounds value="true"/>
        <junctions.corner-detail value="5"/>
        <junctions.limit-turn-speed value="5.5"/>
        <rectangular-lane-cut value="true"/>
    </junctions>

    <pedestrian>
        <walkingareas value="false"/>
    </pedestrian>

    <report>
        <aggregate-warnings value="5"/>
    </report>

</configuration>
-->

<net version="1.9" junctionCornerDetail="5" rectangularLaneCut="true" limitTurnSpeed="5.50" xmlns:xsi="http://www.w3.org/2001/XMLSchema-instance" xsi:noNamespaceSchemaLocation="http://sumo.dlr.de/xsd/net_file.xsd">

    <location netOffset="1373.01,351.97" convBoundary="0.00,0.00,2297.62,584.83" origBoundary="0.000000,0.000000,0.000000,0.000000" projParameter="+proj=tmerc +lat_0=30.78523635864258 +lon_0=104.0373301506042 +k=1 +x_0=0 +y_0=0 +datum=WGS84 +units=m +geoidgrids=egm96_15.gtx +vunits=m +no_defs "/>

    <type id="bidirectional" priority="1" speed="1.39" disallow="pedestrian tram rail_urban rail rail_electric rail_fast ship" width="3.65"/>
    <type id="border" priority="0" speed="1.39" disallow="all" discard="1" width="0.10"/>
    <type id="driving" priority="1" speed="13.89" disallow="pedestrian tram rail_urban rail rail_electric rail_fast ship" width="3.65"/>
    <type id="entry" priority="1" speed="22.22" disallow="pedestrian tram rail_urban rail rail_electric rail_fast ship" width="3.65"/>
    <type id="exit" priority="1" speed="22.22" disallow="pedestrian tram rail_urban rail rail_electric rail_fast ship" width="3.65"/>
    <type id="median" priority="0" speed="1.39" disallow="all" discard="1" width="0.10"/>
    <type id="mwyEntry" priority="1" speed="22.22" allow="private emergency authority army vip passenger hov taxi bus coach delivery truck trailer motorcycle evehicle custom1 custom2" width="3.65"/>
    <type id="mwyExit" priority="1" speed="22.22" allow="private emergency authority army vip passenger hov taxi bus coach delivery truck trailer motorcycle evehicle custom1 custom2" width="3.65"/>
    <type id="none" priority="0" speed="1.39" disallow="all" discard="1" width="1.00"/>
    <type id="offRamp" priority="1" speed="22.22" allow="private emergency authority army vip passenger hov taxi bus coach delivery truck trailer motorcycle evehicle custom1 custom2" width="3.65"/>
    <type id="onRamp" priority="1" speed="22.22" allow="private emergency authority army vip passenger hov taxi bus coach delivery truck trailer motorcycle evehicle custom1 custom2" width="3.65"/>
    <type id="parking" priority="1" speed="1.39" disallow="pedestrian tram rail_urban rail rail_electric rail_fast ship" width="2.50"/>
    <type id="rail" priority="3" speed="33.33" allow="rail_urban rail rail_electric rail_fast" width="3.65"/>
    <type id="restricted" priority="0" speed="13.89" disallow="all" width="3.65"/>
    <type id="roadWorks" priority="0" speed="1.39" allow="authority" width="3.65"/>
    <type id="shoulder" priority="0" speed="1.39" disallow="all" discard="1" width="1.00"/>
    <type id="special1" priority="1" speed="22.22" allow="custom1" discard="1" width="3.65"/>
    <type id="special2" priority="1" speed="22.22" allow="custom2" discard="1" width="3.65"/>
    <type id="special3" priority="1" speed="22.22" allow="custom1 custom2" discard="1" width="3.65"/>
    <type id="stop" priority="1" speed="13.89" disallow="pedestrian tram rail_urban rail rail_electric rail_fast ship" width="3.65"/>
    <type id="tram" priority="2" speed="13.89" allow="tram" width="3.65"/>

    <edge id=":0.begin_0" function="internal">
        <lane id=":0.begin_0_0" index="0" disallow="pedestrian tram rail_urban rail rail_electric rail_fast ship" speed="3.53" length="4.38" width="3.00" shape="2.12,50.52 1.00,49.76 0.63,49.01 1.01,48.26 2.14,47.52"/>
    </edge>
    <edge id=":0.end_0" function="internal">
        <lane id=":0.end_0_0" index="0" disallow="pedestrian tram rail_urban rail rail_electric rail_fast ship" speed="3.53" length="4.38" width="3.00" shape="2096.27,560.31 2096.97,561.47 2096.99,562.31 2096.33,562.83 2094.99,563.03"/>
    </edge>
    <edge id=":13#1_0" function="internal">
        <lane id=":13#1_0_0" index="0" allow="authority" speed="17.88" length="8.26" width="3.50" shape="1844.22,342.68 1846.77,342.72 1848.54,341.86 1850.30,341.01 1852.85,341.05"/>
        <lane id=":13#1_0_1" index="1" disallow="pedestrian tram rail_urban rail rail_electric rail_fast ship" speed="17.88" length="8.26" width="3.75" shape="1844.22,342.68 1851.99,344.57"/>
        <lane id=":13#1_0_2" index="2" disallow="pedestrian tram rail_urban rail rail_electric rail_fast ship" speed="17.88" length="8.26" width="3.75" shape="1843.33,346.32 1851.11,348.21"/>
        <lane id=":13#1_0_3" index="3" disallow="pedestrian tram rail_urban rail rail_electric rail_fast ship" speed="17.88" length="8.26" width="3.50" shape="1842.48,349.85 1850.25,351.73"/>
    </edge>
    <edge id=":15_0" function="internal">
        <lane id=":15_0_0" index="0" allow="authority" speed="17.88" length="93.64" width="3.50" shape="1973.03,436.11 1958.14,428.59 1932.73,416.64 1906.24,404.83 1888.13,397.73"/>
        <lane id=":15_0_1" index="1" disallow="pedestrian tram rail_urban rail rail_electric rail_fast ship" speed="17.88" length="93.64" width="3.50" shape="1974.80,433.10 1959.79,425.52 1934.12,413.45 1907.36,401.53 1889.13,394.38"/>
    </edge>
    <edge id=":15_2" function="internal">
        <lane id=":15_2_0" index="0" disallow="pedestrian tram rail_urban rail rail_electric rail_fast ship" speed="17.88" length="94.73" width="3.50" shape="1980.45,419.74 1889.13,394.38"/>
        <lane id=":15_2_1" index="1" disallow="pedestrian tram rail_urban rail rail_electric rail_fast ship" speed="17.88" length="94.73" width="3.75" shape="1981.36,416.36 1890.16,390.91"/>
    </edge>
    <edge id=":23_0" function="internal">
        <lane id=":23_0_0" index="0" allow="authority" speed="17.88" length="192.50" width="3.50" shape="1781.85,366.78 1596.89,314.03"/>
        <lane id=":23_0_1" index="1" disallow="pedestrian tram rail_urban rail rail_electric rail_fast ship" speed="17.88" length="192.50" width="3.75" shape="1782.82,363.41 1597.73,310.50"/>
        <lane id=":23_0_2" index="2" disallow="pedestrian tram rail_urban rail rail_electric rail_fast ship" speed="17.88" length="192.50" width="3.75" shape="1783.82,359.93 1598.61,306.86"/>
    </edge>
    <edge id=":23_3" function="internal">
        <lane id=":23_3_0" index="0" allow="authority" speed="17.88" length="192.12" width="3.75" shape="1784.55,355.24 1598.61,306.86"/>
        <lane id=":23_3_1" index="1" disallow="pedestrian tram rail_urban rail rail_electric rail_fast ship" speed="17.88" length="192.12" width="3.75" shape="1785.40,351.71 1598.61,306.86"/>
        <lane id=":23_3_2" index="2" disallow="pedestrian tram rail_urban rail rail_electric rail_fast ship" speed="17.88" length="192.12" width="3.75" shape="1786.28,348.07 1599.48,303.21"/>
        <lane id=":23_3_3" index="3" disallow="pedestrian tram rail_urban rail rail_electric rail_fast ship" speed="17.88" length="192.12" width="3.75" shape="1787.16,344.42 1600.35,299.56"/>
    </edge>
    <edge id=":30_0" function="internal">
        <lane id=":30_0_0" index="0" allow="authority" speed="17.88" length="74.03" width="3.50" shape="1867.31,333.06 1939.34,350.40"/>
        <lane id=":30_0_1" index="1" disallow="pedestrian tram rail_urban rail rail_electric rail_fast ship" speed="17.88" length="74.03" width="3.50" shape="1866.63,336.49 1939.34,350.40"/>
        <lane id=":30_0_2" index="2" disallow="pedestrian tram rail_urban rail rail_electric rail_fast ship" speed="17.88" length="74.03" width="3.79" shape="1866.63,336.49 1938.53,353.95"/>
    </edge>
    <edge id=":35_0" function="internal">
        <lane id=":35_0_0" index="0" allow="authority" speed="17.88" length="59.83" width="3.50" shape="1773.99,314.63 1832.67,326.32"/>
        <lane id=":35_0_1" index="1" disallow="pedestrian tram rail_urban rail rail_electric rail_fast ship" speed="17.88" length="59.83" width="3.50" shape="1773.09,319.16 1831.98,329.75"/>
    </edge>
    <edge id=":39_0" function="internal">
        <lane id=":39_0_0" index="0" allow="authority" speed="17.88" length="87.23" width="3.50" shape="1511.99,293.08 1428.26,268.49"/>
        <lane id=":39_0_1" index="1" disallow="pedestrian tram rail_urban rail rail_electric rail_fast ship" speed="17.88" length="87.23" width="3.75" shape="1512.86,289.56 1429.12,264.97"/>
        <lane id=":39_0_2" index="2" disallow="pedestrian tram rail_urban rail rail_electric rail_fast ship" speed="17.88" length="87.23" width="3.75" shape="1513.76,285.92 1429.12,264.97"/>
        <lane id=":39_0_3" index="3" disallow="pedestrian tram rail_urban rail rail_electric rail_fast ship" speed="17.88" length="87.23" width="3.75" shape="1514.66,282.28 1430.01,261.32"/>
        <lane id=":39_0_4" index="4" disallow="pedestrian tram rail_urban rail rail_electric rail_fast ship" speed="17.88" length="87.23" width="3.50" shape="1515.56,278.64 1430.87,257.80"/>
    </edge>
    <edge id=":54_0" function="internal">
        <lane id=":54_0_0" index="0" disallow="pedestrian tram rail_urban rail rail_electric rail_fast ship" speed="17.88" length="114.49" width="3.47" shape="1960.68,355.15 1981.15,358.20 2017.40,362.89 2053.68,367.27 2074.27,369.36"/>
        <lane id=":54_0_1" index="1" disallow="pedestrian tram rail_urban rail rail_electric rail_fast ship" speed="17.88" length="115.11" width="3.75" shape="1959.92,358.72 1980.48,361.77 2016.94,366.48 2053.44,370.87 2074.13,372.97"/>
    </edge>
    <edge id=":54_2" function="internal">
        <lane id=":54_2_0" index="0" disallow="pedestrian tram rail_urban rail rail_electric rail_fast ship" speed="17.88" length="118.94" width="3.77" shape="1959.92,358.72 2076.04,384.45"/>
    </edge>
    <edge id=":65_0" function="internal">
        <lane id=":65_0_0" index="0" allow="authority" speed="17.88" length="175.64" width="3.50" shape="1596.11,278.38 1768.13,313.46"/>
        <lane id=":65_0_1" index="1" disallow="pedestrian tram rail_urban rail rail_electric rail_fast ship" speed="17.88" length="175.64" width="5.72" shape="1595.25,281.90 1767.23,317.99"/>
    </edge>
    <edge id=":65_2" function="internal">
        <lane id=":65_2_0" index="0" disallow="pedestrian tram rail_urban rail rail_electric rail_fast ship" speed="17.88" length="176.26" width="3.75" shape="1595.25,281.90 1766.46,323.76"/>
        <lane id=":65_2_1" index="1" disallow="pedestrian tram rail_urban rail rail_electric rail_fast ship" speed="17.88" length="176.26" width="3.75" shape="1594.36,285.55 1765.58,327.40"/>
        <lane id=":65_2_2" index="2" disallow="pedestrian tram rail_urban rail rail_electric rail_fast ship" speed="17.88" length="176.26" width="3.50" shape="1593.50,289.07 1764.72,330.92"/>
    </edge>

    <edge id="-0" from="0.begin" to="0.end" priority="1" type="driving" shape="2.13,49.02 58.66,49.46 60.22,49.48 69.93,49.58 71.92,49.62 73.92,49.68 75.92,49.78 77.92,49.90 79.91,50.05 81.90,50.22 83.89,50.43 85.88,50.66 87.86,50.92 89.84,51.21 90.76,51.35 111.85,54.71 113.83,54.98 115.82,55.14 117.82,55.21 119.82,55.17 121.16,55.09 121.35,55.08 123.34,54.95 125.34,54.84 127.34,54.78 129.34,54.74 130.35,54.74 132.35,54.75 134.34,54.77 136.34,54.80 138.34,54.84 139.35,54.87 145.99,55.06 147.98,55.13 149.98,55.21 151.98,55.31 153.98,55.42 155.97,55.54 157.97,55.68 159.96,55.84 161.95,56.01 163.95,56.19 165.94,56.39 167.92,56.61 168.19,56.64 187.67,58.84 189.65,59.07 191.64,59.30 193.63,59.55 195.61,59.80 197.50,60.05 220.93,63.17 222.91,63.43 224.89,63.71 226.87,63.99 228.85,64.28 230.83,64.58 232.80,64.89 234.03,65.09 247.34,67.22 249.31,67.54 251.29,67.87 253.26,68.20 255.23,68.54 257.20,68.90 259.16,69.26 261.13,69.62 263.09,70.00 265.06,70.38 266.04,70.58 281.83,73.72 283.79,74.12 285.75,74.52 286.29,74.63 327.51,83.24 329.46,83.65 331.42,84.07 333.37,84.50 335.32,84.94 337.27,85.38 339.22,85.83 341.17,86.29 343.11,86.76 345.06,87.24 347.00,87.72 348.93,88.21 350.87,88.71 352.81,89.22 354.32,89.62 384.81,97.76 386.74,98.28 388.67,98.81 390.60,99.34 392.52,99.89 394.44,100.44 396.37,101.00 398.28,101.56 400.20,102.14 400.46,102.21 427.55,110.40 429.47,110.99 431.38,111.58 433.29,112.17 435.19,112.78 437.10,113.39 439.00,114.01 440.90,114.64 471.52,124.85 471.84,124.95 517.67,140.26 519.56,140.90 521.46,141.54 523.35,142.19 525.24,142.85 527.12,143.52 528.71,144.09 603.32,170.96 605.20,171.64 607.09,172.30 681.93,198.58 683.81,199.25 684.47,199.48 749.80,222.82 751.68,223.49 753.57,224.15 754.11,224.34 801.94,240.93 803.83,241.58 805.72,242.23 807.62,242.87 809.52,243.49 810.65,243.87 866.29,262.03 868.20,262.65 870.10,263.26 872.01,263.86 873.92,264.45 875.83,265.04 877.74,265.62 879.66,266.19 881.58,266.75 883.50,267.31 885.42,267.86 886.68,268.21 956.06,287.64 957.99,288.17 959.92,288.70 961.85,289.22 963.78,289.73 965.72,290.24 966.19,290.36 1017.17,303.48 1019.11,303.98 1021.05,304.47 1022.99,304.94 1024.93,305.42 1026.88,305.88 1028.82,306.34 1030.77,306.78 1032.03,307.07 1076.18,317.01 1078.13,317.44 1080.09,317.87 1082.04,318.29 1084.00,318.70 1085.96,319.11 1087.92,319.50 1089.88,319.89 1091.84,320.27 1093.81,320.65 1095.78,321.01 1097.74,321.37 1111.05,323.75 1113.02,324.10 1114.99,324.44 1116.96,324.77 1118.94,325.10 1120.91,325.42 1122.89,325.73 1124.87,326.03 1126.84,326.32 1128.68,326.58 1153.46,330.12 1155.44,330.39 1157.42,330.66 1158.78,330.85 1201.79,336.50 1203.77,336.76 1205.67,337.00 1241.15,341.38 1243.14,341.62 1245.12,341.86 1247.11,342.08 1262.18,343.76 1264.17,343.98 1266.16,344.19 1268.15,344.39 1270.14,344.58 1272.13,344.77 1274.12,344.94 1275.22,345.04 1289.47,346.25 1291.46,346.41 1293.45,346.56 1295.45,346.69 1297.45,346.81 1299.44,346.92 1301.44,347.01 1303.44,347.09 1305.44,347.15 1305.70,347.16 1307.70,347.23 1309.70,347.31 1311.69,347.41 1313.69,347.54 1315.69,347.68 1317.68,347.84 1319.67,348.02 1321.66,348.22 1321.92,348.24 1340.90,350.26 1342.89,350.47 1344.88,350.67 1346.87,350.86 1348.86,351.04 1350.85,351.22 1352.45,351.35 1388.35,354.33 1390.35,354.49 1391.65,354.59 1434.66,357.87 1436.65,358.03 1438.64,358.21 1440.63,358.40 1442.62,358.62 1442.97,358.66 1444.96,358.87 1446.95,359.05 1448.95,359.20 1450.94,359.31 1451.29,359.33 1466.65,360.10 1468.65,360.20 1470.64,360.31 1472.64,360.43 1473.09,360.46 1489.54,361.49 1491.54,361.62 1493.53,361.75 1495.53,361.90 1497.52,362.05 1499.51,362.21 1501.51,362.38 1503.50,362.56 1505.49,362.74 1507.48,362.93 1509.47,363.14 1511.46,363.34 1513.45,363.56 1515.44,363.79 1517.42,364.02 1518.80,364.18 1528.77,365.40 1530.75,365.64 1532.73,365.90 1534.72,366.16 1536.70,366.43 1538.68,366.71 1540.66,366.99 1542.64,367.29 1544.61,367.59 1546.59,367.90 1548.18,368.15 1576.25,372.70 1578.22,373.02 1580.19,373.35 1580.79,373.45 1611.57,378.73 1613.54,379.07 1615.51,379.42 1617.48,379.78 1619.44,380.14 1621.41,380.52 1623.37,380.90 1625.33,381.29 1627.29,381.68 1629.25,382.09 1631.21,382.50 1633.16,382.92 1635.12,383.35 1637.07,383.79 1639.02,384.23 1640.97,384.68 1641.21,384.74 1679.56,393.73 1681.51,394.19 1683.45,394.66 1685.39,395.13 1687.34,395.62 1689.27,396.11 1691.21,396.61 1693.15,397.11 1695.08,397.63 1697.01,398.15 1698.94,398.68 1700.86,399.22 1702.79,399.76 1704.71,400.32 1706.48,400.83 1741.43,411.11 1743.35,411.68 1745.26,412.25 1747.18,412.83 1749.09,413.43 1749.83,413.66 1793.30,427.27 1795.21,427.87 1797.12,428.48 1799.02,429.10 1800.92,429.72 1802.82,430.36 1804.71,430.99 1806.60,431.64 1808.49,432.30 1810.38,432.96 1812.27,433.63 1814.15,434.31 1816.03,434.99 1817.90,435.68 1819.78,436.38 1821.65,437.09 1823.52,437.81 1825.38,438.53 1827.24,439.26 1827.38,439.31 1850.26,448.34 1852.12,449.08 1853.98,449.82 1855.83,450.58 1857.68,451.34 1859.53,452.10 1861.37,452.88 1862.85,453.50 1891.85,465.87 1893.69,466.66 1895.52,467.45 1897.36,468.25 1899.19,469.06 1901.01,469.88 1902.02,470.34 1921.71,479.25 1923.53,480.08 1925.35,480.92 1927.16,481.76 1927.71,482.02 1965.10,499.54 1966.90,500.40 1968.71,501.26 1969.02,501.40 2046.15,538.39 2047.96,539.25 2049.57,540.01 2095.63,561.67">
        <lane id="-0_0" index="0" disallow="pedestrian tram rail_urban rail rail_electric rail_fast ship" speed="17.88" length="2172.44" width="3.00" shape="2.14,47.52 58.67,47.96 60.24,47.98 69.95,48.08 71.96,48.12 73.98,48.18 76.00,48.28 78.02,48.40 80.03,48.55 82.04,48.73 84.05,48.94 86.06,49.17 88.07,49.43 90.06,49.73 90.99,49.87 112.08,53.23 113.99,53.49 115.91,53.64 117.83,53.71 119.77,53.67 121.07,53.59 121.25,53.58 123.25,53.45 125.28,53.34 127.30,53.28 129.32,53.24 130.35,53.24 132.36,53.25 134.36,53.27 136.37,53.30 138.37,53.34 139.39,53.37 146.04,53.56 148.04,53.63 150.05,53.71 152.06,53.81 154.07,53.92 156.07,54.04 158.08,54.18 160.08,54.35 162.08,54.52 164.09,54.70 166.10,54.90 168.09,55.12 168.36,55.15 187.84,57.35 189.82,57.58 191.82,57.81 193.82,58.06 195.80,58.31 197.70,58.56 221.13,61.68 223.11,61.94 225.10,62.22 227.08,62.51 229.07,62.80 231.06,63.10 233.04,63.41 234.27,63.61 247.58,65.74 249.55,66.06 251.54,66.39 253.51,66.72 255.49,67.06 257.47,67.42 259.43,67.78 261.41,68.15 263.37,68.53 265.35,68.91 266.33,69.11 282.12,72.25 284.09,72.65 286.05,73.05 286.59,73.16 327.82,81.77 329.77,82.18 331.74,82.60 333.70,83.04 335.65,83.48 337.60,83.92 339.56,84.37 341.52,84.83 343.47,85.30 345.42,85.78 347.36,86.27 349.30,86.76 351.25,87.26 353.19,87.77 354.71,88.17 385.20,96.31 387.13,96.83 389.07,97.36 391.01,97.90 392.93,98.45 394.86,99.00 396.79,99.56 398.71,100.12 400.63,100.70 400.87,100.77 427.98,108.96 429.91,109.56 431.82,110.15 433.74,110.74 435.65,111.35 437.56,111.96 439.47,112.59 441.37,113.22 471.99,123.43 472.30,123.52 518.15,138.84 520.04,139.48 521.94,140.12 523.84,140.77 525.74,141.44 527.62,142.11 529.22,142.68 603.83,169.55 605.70,170.23 607.59,170.88 682.43,197.16 684.31,197.84 684.97,198.07 750.30,221.41 752.18,222.08 754.07,222.73 754.60,222.92 802.43,239.51 804.32,240.16 806.20,240.81 808.09,241.45 809.99,242.07 811.12,242.45 866.76,260.60 868.66,261.22 870.55,261.83 872.46,262.43 874.36,263.02 876.27,263.61 878.17,264.18 880.08,264.75 882.00,265.31 883.92,265.87 885.83,266.42 887.08,266.77 956.46,286.20 958.39,286.72 960.31,287.25 962.24,287.77 964.16,288.28 966.10,288.79 966.56,288.91 1017.54,302.03 1019.48,302.53 1021.41,303.01 1023.35,303.48 1025.28,303.96 1027.23,304.42 1029.16,304.88 1031.10,305.32 1032.36,305.61 1076.51,315.55 1078.45,315.98 1080.41,316.40 1082.35,316.82 1084.31,317.23 1086.26,317.64 1088.21,318.03 1090.17,318.42 1092.12,318.80 1094.09,319.18 1096.05,319.53 1098.00,319.89 1111.31,322.27 1113.28,322.62 1115.24,322.96 1117.21,323.29 1119.18,323.62 1121.15,323.94 1123.12,324.25 1125.09,324.55 1127.05,324.84 1128.89,325.10 1153.67,328.63 1155.64,328.90 1157.62,329.17 1158.98,329.36 1201.99,335.01 1203.96,335.27 1205.86,335.51 1241.33,339.89 1243.32,340.13 1245.29,340.37 1247.28,340.59 1262.35,342.27 1264.33,342.49 1266.31,342.70 1268.30,342.90 1270.28,343.09 1272.27,343.28 1274.25,343.45 1275.35,343.55 1289.60,344.76 1291.58,344.91 1293.56,345.06 1295.54,345.19 1297.54,345.31 1299.52,345.42 1301.50,345.51 1303.49,345.59 1305.49,345.65 1305.75,345.66 1307.76,345.73 1309.77,345.81 1311.78,345.91 1313.79,346.04 1315.80,346.18 1317.81,346.35 1319.81,346.53 1321.81,346.73 1322.06,346.75 1341.06,348.77 1343.04,348.98 1345.03,349.18 1347.01,349.37 1349.00,349.55 1350.98,349.73 1352.57,349.86 1388.47,352.84 1390.47,352.99 1391.76,353.09 1434.77,356.37 1436.78,356.54 1438.78,356.72 1440.78,356.91 1442.79,357.13 1443.13,357.17 1445.11,357.38 1447.07,357.56 1449.05,357.70 1451.02,357.81 1451.37,357.83 1466.73,358.60 1468.73,358.70 1470.73,358.81 1472.73,358.93 1473.18,358.96 1489.63,359.99 1491.64,360.12 1493.64,360.25 1495.64,360.40 1497.64,360.55 1499.63,360.72 1501.64,360.89 1503.64,361.07 1505.63,361.25 1507.63,361.44 1509.62,361.65 1511.62,361.85 1513.62,362.07 1515.61,362.30 1517.59,362.53 1518.98,362.69 1528.95,363.91 1530.94,364.15 1532.92,364.41 1534.92,364.67 1536.91,364.94 1538.89,365.22 1540.88,365.51 1542.87,365.81 1544.84,366.11 1546.82,366.42 1548.42,366.67 1576.49,371.22 1578.46,371.54 1580.44,371.87 1581.04,371.97 1611.82,377.25 1613.80,377.59 1615.78,377.94 1617.75,378.30 1619.72,378.67 1621.69,379.05 1623.66,379.43 1625.62,379.82 1627.59,380.21 1629.56,380.62 1631.52,381.03 1633.48,381.45 1635.45,381.89 1637.40,382.33 1639.35,382.77 1641.31,383.22 1641.56,383.28 1679.90,392.27 1681.86,392.73 1683.80,393.20 1685.75,393.67 1687.71,394.17 1689.64,394.66 1691.58,395.16 1693.53,395.66 1695.47,396.18 1697.40,396.70 1699.34,397.23 1701.27,397.78 1703.20,398.32 1705.13,398.88 1706.90,399.39 1741.85,409.67 1743.78,410.24 1745.69,410.81 1747.62,411.40 1749.54,412.00 1750.28,412.23 1793.75,425.84 1795.66,426.44 1797.58,427.05 1799.49,427.67 1801.39,428.30 1803.30,428.94 1805.19,429.57 1807.09,430.22 1808.98,430.88 1810.88,431.55 1812.78,432.22 1814.66,432.90 1816.54,433.58 1818.42,434.27 1820.31,434.98 1822.19,435.69 1824.06,436.41 1825.92,437.13 1827.79,437.86 1827.91,437.91 1850.81,446.94 1852.67,447.69 1854.54,448.43 1856.40,449.19 1858.25,449.95 1860.11,450.72 1861.95,451.50 1863.43,452.12 1892.44,464.49 1894.28,465.28 1896.12,466.07 1897.96,466.88 1899.80,467.69 1901.63,468.51 1902.64,468.97 1922.33,477.88 1924.16,478.72 1925.98,479.56 1927.79,480.40 1928.35,480.66 1965.74,498.18 1967.55,499.05 1969.35,499.90 1969.65,500.04 2046.80,537.04 2048.60,537.89 2050.21,538.65 2096.27,560.31" type="driving"/>
    </edge>
    <edge id="-1" from="35" to="30" priority="1" type="roadWorks|driving" shape="1831.63,331.47 1832.47,331.64 1834.44,332.05 1836.42,332.44 1837.44,332.63 1838.53,332.84 1840.50,333.21 1841.31,333.36 1846.31,334.29 1848.27,334.65 1850.22,335.03 1852.17,335.41 1852.74,335.52 1866.29,338.21">
        <lane id="-1_0" index="0" allow="authority" speed="17.88" length="35.30" width="3.50" shape="1832.67,326.32 1833.53,326.50 1835.48,326.90 1837.42,327.29 1838.42,327.47 1839.51,327.68 1841.47,328.05 1842.27,328.20 1847.27,329.13 1849.25,329.49 1851.22,329.88 1853.17,330.26 1853.76,330.37 1867.31,333.06" type="roadWorks"/>
        <lane id="-1_1" index="1" disallow="pedestrian tram rail_urban rail rail_electric rail_fast ship" speed="17.88" length="35.30" width="3.50" shape="1831.98,329.75 1832.82,329.93 1834.79,330.33 1836.75,330.72 1837.77,330.91 1838.86,331.12 1840.82,331.49 1841.63,331.64 1846.63,332.57 1848.60,332.93 1850.55,333.31 1852.50,333.69 1853.08,333.80 1866.63,336.49" type="driving"/>
    </edge>
    <edge id="-10" from="10.begin" to="65" priority="1" type="roadWorks|driving|driving|driving" shape="1.31,3.50 44.62,3.85 46.61,3.87 48.60,3.90 50.58,3.93 52.57,3.98 54.55,4.03 56.54,4.09 58.52,4.16 59.66,4.20 96.49,5.61 98.50,5.68 100.51,5.75 119.49,6.32 121.48,6.39 123.46,6.46 125.45,6.54 127.44,6.63 127.60,6.64 171.42,8.68 173.40,8.78 175.38,8.88 177.37,9.00 179.35,9.12 180.48,9.19 224.90,12.08 226.89,12.21 228.87,12.35 230.85,12.50 232.83,12.66 233.88,12.74 302.58,18.46 304.55,18.63 306.53,18.81 308.51,18.99 310.49,19.19 312.46,19.39 314.44,19.60 314.83,19.64 348.66,23.30 350.66,23.51 352.00,23.65 388.73,27.38 390.71,27.59 392.69,27.80 394.66,28.02 396.63,28.25 398.60,28.48 400.57,28.73 402.54,28.98 404.39,29.22 464.92,37.32 466.89,37.58 468.86,37.86 470.82,38.14 525.02,46.06 526.98,46.35 528.94,46.65 530.91,46.96 532.87,47.27 534.83,47.59 536.79,47.93 536.99,47.96 601.08,58.93 601.42,58.99 641.44,65.87 643.40,66.21 645.35,66.56 647.30,66.91 649.26,67.28 651.21,67.65 652.19,67.84 676.49,72.57 678.44,72.95 680.39,73.34 682.34,73.74 682.62,73.80 754.52,88.74 756.46,89.14 758.41,89.56 760.35,89.98 761.76,90.30 793.69,97.43 795.62,97.86 797.56,98.31 798.38,98.50 824.83,104.68 825.19,104.76 886.08,118.93 888.01,119.39 889.72,119.79 948.27,133.89 948.98,134.06 1003.40,147.24 1004.29,147.46 1191.52,193.18 1192.91,193.52 1318.81,223.88 1320.03,224.18 1593.09,290.77">
        <lane id="-10_0" index="0" allow="authority" speed="17.88" length="1623.65" width="3.50" shape="1.40,-9.25 44.72,-8.90 46.77,-8.88 48.79,-8.85 50.84,-8.82 52.89,-8.77 54.90,-8.72 56.96,-8.65 58.97,-8.58 60.13,-8.54 96.98,-7.13 98.94,-7.06 100.90,-6.99 119.88,-6.42 121.93,-6.35 123.94,-6.28 125.99,-6.20 128.03,-6.11 128.29,-6.09 172.02,-4.06 174.04,-3.95 176.09,-3.85 178.14,-3.73 180.13,-3.61 181.29,-3.53 225.73,-0.64 227.76,-0.51 229.80,-0.37 231.85,-0.21 233.84,-0.05 234.89,0.03 303.64,5.75 305.68,5.93 307.68,6.11 309.73,6.30 311.77,6.50 313.78,6.71 315.78,6.92 316.17,6.96 350.03,10.62 351.99,10.83 353.31,10.97 390.02,14.70 392.05,14.91 394.07,15.12 396.11,15.35 398.11,15.59 400.14,15.82 402.18,16.08 404.16,16.33 406.06,16.58 466.61,24.68 468.62,24.95 470.66,25.24 472.64,25.52 526.86,33.44 528.88,33.74 530.90,34.05 532.90,34.37 534.89,34.68 536.95,35.02 538.94,35.36 539.01,35.37 603.23,46.36 603.61,46.43 643.60,53.30 645.62,53.65 647.60,54.01 649.61,54.37 651.63,54.75 653.60,55.13 654.63,55.32 678.93,60.05 680.91,60.44 682.92,60.84 684.92,61.25 685.25,61.32 757.11,76.26 759.09,76.66 761.10,77.10 763.10,77.53 764.56,77.86 796.47,84.99 798.45,85.43 800.44,85.89 801.28,86.08 827.73,92.26 828.02,92.33 888.97,106.51 890.94,106.98 892.66,107.38 951.25,121.49 951.97,121.66 1006.40,134.85 1007.33,135.08 1194.54,180.79 1195.92,181.13 1321.80,211.49 1323.06,211.80 1596.11,278.38" type="roadWorks"/>
        <lane id="-10_1" index="1" disallow="pedestrian tram rail_urban rail rail_electric rail_fast ship" speed="17.88" length="1623.65" width="3.75" shape="1.38,-5.62 44.69,-5.27 46.72,-5.25 48.74,-5.22 50.76,-5.19 52.80,-5.14 54.80,-5.09 56.84,-5.03 58.84,-4.96 59.99,-4.92 96.84,-3.51 98.82,-3.44 100.79,-3.37 119.77,-2.80 121.80,-2.73 123.80,-2.66 125.84,-2.58 127.86,-2.49 128.10,-2.47 171.85,-0.44 173.86,-0.33 175.88,-0.23 177.92,-0.11 179.91,0.01 181.06,0.08 225.49,2.97 227.51,3.11 229.54,3.25 231.56,3.40 233.55,3.56 234.61,3.64 303.34,9.37 305.36,9.54 307.36,9.72 309.38,9.91 311.41,10.11 313.40,10.31 315.40,10.53 315.79,10.57 349.64,14.23 351.61,14.43 352.94,14.57 389.65,18.30 391.67,18.52 393.68,18.73 395.70,18.95 397.69,19.19 399.70,19.42 401.72,19.68 403.70,19.93 405.58,20.17 466.13,28.28 468.13,28.54 470.15,28.83 472.12,29.11 526.34,37.03 528.34,37.33 530.34,37.63 532.33,37.95 534.32,38.26 536.35,38.59 538.33,38.94 538.44,38.95 602.62,49.94 602.99,50.00 642.99,56.88 644.99,57.22 646.96,57.58 648.95,57.94 650.96,58.31 652.92,58.69 653.93,58.88 678.23,63.61 680.21,64.00 682.20,64.40 684.18,64.80 684.50,64.87 756.38,79.81 758.34,80.21 760.34,80.64 762.32,81.07 763.76,81.40 795.68,88.52 797.64,88.96 799.62,89.42 800.46,89.61 826.90,95.79 827.21,95.86 888.15,110.04 890.11,110.51 891.83,110.91 950.41,125.02 951.12,125.19 1005.55,138.37 1006.47,138.60 1193.68,184.32 1195.06,184.65 1320.95,215.01 1322.20,215.32 1595.25,281.90" type="driving"/>
        <lane id="-10_2" index="2" disallow="pedestrian tram rail_urban rail rail_electric rail_fast ship" speed="17.88" length="1623.65" width="3.75" shape="1.35,-1.87 44.66,-1.52 46.68,-1.50 48.68,-1.47 50.69,-1.44 52.71,-1.39 54.70,-1.34 56.72,-1.28 58.71,-1.21 59.86,-1.17 96.69,0.24 98.69,0.31 100.67,0.38 119.65,0.95 121.67,1.02 123.66,1.09 125.68,1.17 127.69,1.26 127.89,1.27 171.67,3.31 173.67,3.41 175.68,3.51 177.69,3.63 179.68,3.76 180.82,3.83 225.25,6.72 227.25,6.85 229.26,6.99 231.27,7.14 233.25,7.30 234.31,7.38 303.03,13.10 305.02,13.28 307.02,13.46 309.02,13.64 311.03,13.84 313.01,14.04 315.00,14.25 315.39,14.29 349.24,17.96 351.22,18.16 352.55,18.30 389.27,22.03 391.28,22.24 393.27,22.46 395.27,22.68 397.25,22.91 399.25,23.14 401.25,23.40 403.22,23.65 405.09,23.89 465.63,31.99 467.62,32.25 469.62,32.54 471.59,32.82 525.80,40.74 527.78,41.03 529.76,41.34 531.75,41.65 533.72,41.96 535.72,42.29 537.70,42.63 537.84,42.65 601.99,53.63 602.34,53.69 642.35,60.57 644.33,60.92 646.30,61.27 648.27,61.62 650.26,62.00 652.22,62.37 653.22,62.56 677.52,67.29 679.48,67.68 681.46,68.07 683.43,68.48 683.73,68.54 755.61,83.48 757.57,83.88 759.54,84.31 761.51,84.73 762.94,85.06 794.86,92.18 796.81,92.62 798.77,93.07 799.60,93.27 826.05,99.45 826.38,99.52 887.30,113.70 889.25,114.16 890.96,114.56 949.53,128.66 950.24,128.83 1004.67,142.02 1005.57,142.24 1192.80,187.96 1194.18,188.30 1320.07,218.65 1321.31,218.96 1594.36,285.55" type="driving"/>