<?xml version="1.0" encoding="UTF-8"?>

<!-- generated on 2023-05-04 17:41:47.762473 by randomTrips.py v1_16_0+0000-94ec4c6cd72
<configuration>
    <net-file value=".\freewayB.net.xml"/>
    <period value="0.2"/>
    <route-file value="freewayB.rou.xml"/>
</configuration>
-->

<!-- generated on 2023-05-04 17:41:47 by Eclipse SUMO duarouter Version 1.16.0
<configuration xmlns:xsi="http://www.w3.org/2001/XMLSchema-instance" xsi:noNamespaceSchemaLocation="http://sumo.dlr.de/xsd/duarouterConfiguration.xsd">

    <input>
        <net-file value=".\freewayB.net.xml"/>
        <route-files value="trips.trips.xml"/>
    </input>

    <output>
        <output-file value="freewayB.rou.xml"/>
        <alternatives-output value="NUL"/>
    </output>

    <time>
        <begin value="0"/>
        <end value="3600"/>
    </time>

    <report>
        <no-warnings value="true"/>
        <ignore-errors value="true"/>
        <no-step-log value="true"/>
    </report>

</configuration>
-->

<routes xmlns:xsi="http://www.w3.org/2001/XMLSchema-instance" xsi:noNamespaceSchemaLocation="http://sumo.dlr.de/xsd/routes_file.xsd">
    <vehicle id="1" depart="0.20">
        <route edges="-13#0 -13#1"/>
    </vehicle>
    <vehicle id="4" depart="0.80">
        <route edges="-5 -1"/>
    </vehicle>
    <vehicle id="13" depart="2.60">
        <route edges="-1"/>
    </vehicle>
    <vehicle id="15" depart="3.00">
        <route edges="8 11"/>
    </vehicle>
    <vehicle id="16" depart="3.20">
        <route edges="12 8"/>
    </vehicle>
    <vehicle id="21" depart="4.20">
        <route edges="-13#0 -13#1"/>
    </vehicle>
    <vehicle id="23" depart="4.60">
        <route edges="-10 -13#0 -13#1"/>
    </vehicle>
    <vehicle id="29" depart="5.80">
        <route edges="-10 -5 -1 -2"/>
    </vehicle>
    <vehicle id="32" depart="6.40">
        <route edges="8 11"/>
    </vehicle>
    <vehicle id="39" depart="7.80">
        <route edges="-13#0 -13#1"/>
    </vehicle>
    <vehicle id="41" depart="8.20">
        <route edges="12"/>
    </vehicle>
    <vehicle id="44" depart="8.80">
        <route edges="-1"/>
    </vehicle>
    <vehicle id="45" depart="9.00">
        <route edges="-10 -5 -1 -2 -7"/>
    </vehicle>
    <vehicle id="47" depart="9.40">
        <route edges="-1 -2"/>
    </vehicle>
    <vehicle id="53" depart="10.60">
        <route edges="-10 -5 -1 -2 -3"/>
    </vehicle>
    <vehicle id="62" depart="12.40">
        <route edges="-1 -2"/>
    </vehicle>
    <vehicle id="66" depart="13.20">
        <route edges="8"/>
    </vehicle>
    <vehicle id="67" depart="13.40">
        <route edges="-1 -2 -3"/>
    </vehicle>
    <vehicle id="70" depart="14.00">
        <route edges="-5"/>
    </vehicle>
    <vehicle id="73" depart="14.60">
        <route edges="12 8 11"/>
    </vehicle>
    <vehicle id="76" depart="15.20">
        <route edges="-5"/>
    </vehicle>
    <vehicle id="77" depart="15.40">
        <route edges="-10 -13#0 -13#1"/>
    </vehicle>
    <vehicle id="79" depart="15.80">
        <route edges="-13#0 -13#1"/>
    </vehicle>
    <vehicle id="80" depart="16.00">
        <route edges="-1 -2 -7"/>
    </vehicle>
    <vehicle id="84" depart="16.80">
        <route edges="-13#0"/>
    </vehicle>
    <vehicle id="88" depart="17.60">
        <route edges="-1 -2 -3"/>
    </vehicle>
    <vehicle id="89" depart="17.80">
        <route edges="-5 -1 -2 -3"/>
    </vehicle>
    <vehicle id="92" depart="18.40">
        <route edges="-5 -1 -2"/>
    </vehicle>
    <vehicle id="94" depart="18.80">
        <route edges="-10 -5 -1 -2 -3"/>
    </vehicle>
    <vehicle id="100" depart="20.00">
        <route edges="9 8"/>
    </vehicle>
    <vehicle id="103" depart="20.60">
        <route edges="-5 -1"/>
    </vehicle>
    <vehicle id="106" depart="21.20">
        <route edges="-5 -1 -2 -3"/>
    </vehicle>
    <vehicle id="107" depart="21.40">
        <route edges="9 8"/>
    </vehicle>
    <vehicle id="108" depart="21.60">
        <route edges="12 8 11"/>
    </vehicle>
    <vehicle id="109" depart="21.80">
        <route edges="-10 -13#0 -13#1"/>
    </vehicle>
    <vehicle id="111" depart="22.20">
        <route edges="12 8 11"/>
    </vehicle>
    <vehicle id="113" depart="22.60">
        <route edges="12"/>
    </vehicle>
    <vehicle id="117" depart="23.40">
        <route edges="-13#0"/>
    </vehicle>
    <vehicle id="120" depart="24.00">
        <route edges="-5"/>
    </vehicle>
    <vehicle id="121" depart="24.20">
        <route edges="12 8"/>
    </vehicle>
    <vehicle id="126" depart="25.20">
        <route edges="-1 -2 -3"/>
    </vehicle>
    <vehicle id="127" depart="25.40">
        <route edges="9 8"/>
    </vehicle>
    <vehicle id="132" depart="26.40">
        <route edges="8 11"/>
    </vehicle>
    <vehicle id="133" depart="26.60">
        <route edges="4 12 8"/>
    </vehicle>
    <vehicle id="136" depart="27.20">
        <route edges="4 12 8"/>
    </vehicle>
    <vehicle id="137" depart="27.40">
        <route edges="-10 -13#0"/>
    </vehicle>
    <vehicle id="138" depart="27.60">
        <route edges="-10 -5"/>
    </vehicle>
    <vehicle id="148" depart="29.60">
        <route edges="-5 -1"/>
    </vehicle>
    <vehicle id="152" depart="30.40">
        <route edges="-10 -13#0"/>
    </vehicle>
    <vehicle id="154" depart="30.80">
        <route edges="6 12"/>
    </vehicle>
    <vehicle id="156" depart="31.20">
        <route edges="-13#0"/>
    </vehicle>
    <vehicle id="157" depart="31.40">
        <route edges="6 12"/>
    </vehicle>
    <vehicle id="158" depart="31.60">
        <route edges="-5 -1 -2 -7"/>
    </vehicle>
    <vehicle id="160" depart="32.00">
        <route edges="8"/>
    </vehicle>
    <vehicle id="169" depart="33.80">
        <route edges="-5 -1 -2"/>
    </vehicle>
    <vehicle id="179" depart="35.80">
        <route edges="-10 -5 -1 -2 -3"/>
    </vehicle>
    <vehicle id="185" depart="37.00">
        <route edges="12 8 11"/>
    </vehicle>
    <vehicle id="191" depart="38.20">
        <route edges="-2 -3"/>
    </vehicle>
    <vehicle id="193" depart="38.60">
        <route edges="-10 -5 -1 -2 -3"/>
    </vehicle>
    <vehicle id="198" depart="39.60">
        <route edges="-5"/>
    </vehicle>
    <vehicle id="205" depart="41.00">
        <route edges="8 11"/>
    </vehicle>
    <vehicle id="207" depart="41.40">
        <route edges="-10 -5 -1"/>
    </vehicle>
    <vehicle id="210" depart="42.00">
        <route edges="-5 -1 -2 -7"/>
    </vehicle>
    <vehicle id="211" depart="42.20">
        <route edges="-10 -5 -1 -2 -7"/>
    </vehicle>
    <vehicle id="214" depart="42.80">
        <route edges="6 12 8 11"/>
    </vehicle>
    <vehicle id="215" depart="43.00">
        <route edges="-10 -5 -1 -2 -3"/>
    </vehicle>
    <vehicle id="220" depart="44.00">
        <route edges="4 12 8"/>
    </vehicle>
    <vehicle id="221" depart="44.20">
        <route edges="12 8"/>
    </vehicle>
    <vehicle id="225" depart="45.00">
        <route edges="8 11"/>
    </vehicle>
    <vehicle id="235" depart="47.00">
        <route edges="-5"/>
    </vehicle>
    <vehicle id="239" depart="47.80">
        <route edges="8 11"/>
    </vehicle>
    <vehicle id="242" depart="48.40">
        <route edges="8"/>
    </vehicle>
    <vehicle id="245" depart="49.00">
        <route edges="-13#0 -13#1"/>
    </vehicle>
    <vehicle id="246" depart="49.20">
        <route edges="-5 -1"/>
    </vehicle>
    <vehicle id="247" depart="49.40">
        <route edges="-2 -7"/>
    </vehicle>
    <vehicle id="252" depart="50.40">
        <route edges="-1 -2 -7"/>
    </vehicle>
    <vehicle id="253" depart="50.60">
        <route edges="-10 -5 -1 -2 -3"/>
    </vehicle>
    <vehicle id="254" depart="50.80">
        <route edges="-1 -2"/>
    </vehicle>
    <vehicle id="257" depart="51.40">
        <route edges="6 12"/>
    </vehicle>
    <vehicle id="261" depart="52.20">
        <route edges="4 12 8 11"/>
    </vehicle>
    <vehicle id="262" depart="52.40">
        <route edges="4 12 8 11"/>
    </vehicle>
    <vehicle id="265" depart="53.00">
        <route edges="-10 -5 -1 -2 -7"/>
    </vehicle>
    <vehicle id="267" depart="53.40">
        <route edges="4 12 8 11"/>
    </vehicle>
    <vehicle id="268" depart="53.60">
        <route edges="-10 -5 -1 -2 -7"/>
    </vehicle>
    <vehicle id="270" depart="54.00">
        <route edges="8"/>
    </vehicle>
    <vehicle id="271" depart="54.20">
        <route edges="-10 -5 -1"/>
    </vehicle>
    <vehicle id="272" depart="54.40">
        <route edges="-2 -7"/>
    </vehicle>
    <vehicle id="280" depart="56.00">
        <route edges="-5 -1 -2"/>
    </vehicle>
    <vehicle id="284" depart="56.80">
        <route edges="4 12"/>
    </vehicle>
    <vehicle id="286" depart="57.20">
        <route edges="6 12 8"/>
    </vehicle>
    <vehicle id="293" depart="58.60">
        <route edges="-5 -1 -2 -7"/>
    </vehicle>
    <vehicle id="310" depart="62.00">
        <route edges="-13#0"/>
    </vehicle>
    <vehicle id="311" depart="62.20">
        <route edges="-10 -13#0"/>
    </vehicle>
    <vehicle id="312" depart="62.40">
        <route edges="12 8 11"/>
    </vehicle>
    <vehicle id="313" depart="62.60">
        <route edges="-10 -13#0 -13#1"/>
    </vehicle>
    <vehicle id="316" depart="63.20">
        <route edges="-13#0"/>
    </vehicle>
    <vehicle id="317" depart="63.40">
        <route edges="-10 -13#0 -13#1"/>
    </vehicle>
    <vehicle id="318" depart="63.60">
        <route edges="-10 -5 -1"/>
    </vehicle>
    <vehicle id="324" depart="64.80">
        <route edges="-5 -1 -2 -3"/>
    </vehicle>
    <vehicle id="325" depart="65.00">
        <route edges="-10 -5 -1"/>
    </vehicle>
    <vehicle id="328" depart="65.60">
        <route edges="-1 -2 -7"/>
    </vehicle>
    <vehicle id="338" depart="67.60">
        <route edges="6 12 8"/>
    </vehicle>
    <vehicle id="339" depart="67.80">
        <route edges="-13#0 -13#1"/>
    </vehicle>
    <vehicle id="341" depart="68.20">
        <route edges="-10 -5 -1"/>
    </vehicle>
    <vehicle id="342" depart="68.40">
        <route edges="-1 -2 -3"/>
    </vehicle>
    <vehicle id="346" depart="69.20">
        <route edges="4 12 8"/>
    </vehicle>
    <vehicle id="348" depart="69.60">
        <route edges="4 12 8"/>
    </vehicle>
    <vehicle id="349" depart="69.80">
        <route edges="-5"/>
    </vehicle>
    <vehicle id="350" depart="70.00">
        <route edges="4 12 8"/>
    </vehicle>
    <vehicle id="352" depart="70.40">
        <route edges="-10 -5 -1 -2"/>
    </vehicle>
    <vehicle id="354" depart="70.80">
        <route edges="-13#0"/>
    </vehicle>
    <vehicle id="357" depart="71.40">
        <route edges="-5 -1"/>
    </vehicle>
    <vehicle id="358" depart="71.60">
        <route edges="-1 -2 -3"/>
    </vehicle>
    <vehicle id="362" depart="72.40">
        <route edges="9 8"/>
    </vehicle>
    <vehicle id="365" depart="73.00">
        <route edges="-5 -1 -2 -7"/>
    </vehicle>
    <vehicle id="368" depart="73.60">
        <route edges="-5 -1"/>
    </vehicle>
    <vehicle id="369" depart="73.80">
        <route edges="-2"/>
    </vehicle>
    <vehicle id="370" depart="74.00">
        <route edges="4 12"/>
    </vehicle>
    <vehicle id="371" depart="74.20">
        <route edges="-2 -7"/>
    </vehicle>
    <vehicle id="374" depart="74.80">
        <route edges="-5 -1 -2"/>
    </vehicle>
    <vehicle id="376" depart="75.20">
        <route edges="-5"/>
    </vehicle>
    <vehicle id="379" depart="75.80">
        <route edges="-10 -5 -1 -2"/>
    </vehicle>
    <vehicle id="382" depart="76.40">
        <route edges="12 8"/>
    </vehicle>
    <vehicle id="383" depart="76.60">
        <route edges="-5 -1 -2 -7"/>
    </vehicle>
    <vehicle id="386" depart="77.20">
        <route edges="-10 -5"/>
    </vehicle>
    <vehicle id="388" depart="77.60">
        <route edges="9 8"/>
    </vehicle>
    <!-- <vehicle id="399" depart="79.80">
        <route edges="12"/>
    </vehicle> -->
    <vehicle id="400" depart="80.00">
        <route edges="-13#0 -13#1"/>
    </vehicle>
    <!-- <vehicle id="401" depart="80.20">
        <route edges="12 8"/>
    </vehicle> -->
    <vehicle id="405" depart="81.00">
        <route edges="-5 -1 -2"/>
    </vehicle>
    <vehicle id="406" depart="81.20">
        <route edges="-10 -5 -1 -2 -7"/>
    </vehicle>
    <vehicle id="409" depart="81.80">
        <route edges="6 12 8 11"/>
    </vehicle>
    <vehicle id="411" depart="82.20">
        <route edges="4 12"/>
    </vehicle>
    <!-- <vehicle id="414" depart="82.80">
        <route edges="12"/>
    </vehicle> -->
    <vehicle id="420" depart="84.00">
        <route edges="-2 -7"/>
    </vehicle>
    <vehicle id="421" depart="84.20">
        <route edges="4 12"/>
    </vehicle>
    <vehicle id="423" depart="84.60">
        <route edges="-2"/>
    </vehicle>
    <vehicle id="424" depart="84.80">
        <route edges="6 12 8 11"/>
    </vehicle>
    <vehicle id="426" depart="85.20">
        <route edges="-1 -2 -7"/>
    </vehicle>
    <vehicle id="427" depart="85.40">
        <route edges="9 8"/>
    </vehicle>
    <vehicle id="429" depart="85.80">
        <route edges="-1 -2 -7"/>
    </vehicle>
    <vehicle id="431" depart="86.20">
        <route edges="4 12 8"/>
    </vehicle>
    <vehicle id="434" depart="86.80">
        <route edges="-10 -5"/>
    </vehicle>
    <!-- <vehicle id="435" depart="87.00">
        <route edges="12 8 11"/>
    </vehicle> -->
    <vehicle id="436" depart="87.20">
        <route edges="-10 -5 -1"/>
    </vehicle>
    <vehicle id="439" depart="87.80">
        <route edges="-10 -5 -1 -2 -3"/>
    </vehicle>
    <vehicle id="440" depart="88.00">
        <route edges="-13#0 -13#1"/>
    </vehicle>
    <vehicle id="443" depart="88.60">
        <route edges="-10 -5 -1 -2 -3"/>
    </vehicle>
    <vehicle id="447" depart="89.40">
        <route edges="-10 -5 -1 -2"/>
    </vehicle>
    <vehicle id="453" depart="90.60">
        <route edges="4 12 8 11"/>
    </vehicle>
    <vehicle id="454" depart="90.80">
        <route edges="-1 -2 -7"/>
    </vehicle>
    <vehicle id="459" depart="91.80">
        <route edges="4 12 8 11"/>
    </vehicle>
    <vehicle id="460" depart="92.00">
        <route edges="4 12"/>
    </vehicle>
    <vehicle id="461" depart="92.20">
        <route edges="4 12 8"/>
    </vehicle>
    <vehicle id="463" depart="92.60">
        <route edges="-5"/>
    </vehicle>
    <vehicle id="466" depart="93.20">
        <route edges="-10 -13#0"/>
    </vehicle>
    <!-- <vehicle id="467" depart="93.40">
        <route edges="12 8"/>
    </vehicle>
    <vehicle id="468" depart="93.60">
        <route edges="12 8"/>
    </vehicle> -->
    <vehicle id="471" depart="94.20">
        <route edges="8 11"/>
    </vehicle>
    <vehicle id="475" depart="95.00">
        <route edges="6 12 8"/>
    </vehicle>
    <vehicle id="479" depart="95.80">
        <route edges="-5 -1 -2 -7"/>
    </vehicle>
    <vehicle id="481" depart="96.20">
        <route edges="8"/>
    </vehicle>
    <vehicle id="482" depart="96.40">
        <route edges="-10 -13#0 -13#1"/>
    </vehicle>
    <vehicle id="484" depart="96.80">
        <route edges="12 8"/>
    </vehicle>
    <vehicle id="486" depart="97.20">
        <route edges="8"/>
    </vehicle>
    <vehicle id="487" depart="97.40">
        <route edges="-2 -3"/>
    </vehicle>
    <vehicle id="489" depart="97.80">
        <route edges="-2 -3"/>
    </vehicle>
    <vehicle id="491" depart="98.20">
        <route edges="-10 -5 -1 -2 -3"/>
    </vehicle>
    <vehicle id="492" depart="98.40">
        <route edges="4 12 8 11"/>
    </vehicle>
    <vehicle id="495" depart="99.00">
        <route edges="-5 -1"/>
    </vehicle>
    <vehicle id="496" depart="99.20">
        <route edges="-5 -1 -2 -3"/>
    </vehicle>
    <vehicle id="498" depart="99.60">
        <route edges="-2 -3"/>
    </vehicle>
    <vehicle id="500" depart="100.00">
        <route edges="-1 -2 -7"/>
    </vehicle>
    <vehicle id="501" depart="100.20">
        <route edges="12 8"/>
    </vehicle>
    <vehicle id="502" depart="100.40">
        <route edges="-2"/>
    </vehicle>
    <vehicle id="503" depart="100.60">
        <route edges="-10 -13#0"/>
    </vehicle>
    <vehicle id="508" depart="101.60">
        <route edges="-10 -5"/>
    </vehicle>
    <vehicle id="510" depart="102.00">
        <route edges="-13#0 -13#1"/>
    </vehicle>
    <vehicle id="514" depart="102.80">
        <route edges="-10 -13#0"/>
    </vehicle>
    <vehicle id="515" depart="103.00">
        <route edges="-13#0"/>
    </vehicle>
    <vehicle id="519" depart="103.80">
        <route edges="-10 -5 -1"/>
    </vehicle>
    <vehicle id="523" depart="104.60">
        <route edges="-10 -5"/>
    </vehicle>
    <vehicle id="525" depart="105.00">
        <route edges="6 12"/>
    </vehicle>
    <vehicle id="528" depart="105.60">
        <route edges="-5 -1 -2 -3"/>
    </vehicle>
    <vehicle id="531" depart="106.20">
        <route edges="-1 -2 -7"/>
    </vehicle>
    <vehicle id="537" depart="107.40">
        <route edges="6 12"/>
    </vehicle>
    <vehicle id="538" depart="107.60">
        <route edges="4 12 8 11"/>
    </vehicle>
    <vehicle id="541" depart="108.20">
        <route edges="-2 -3"/>
    </vehicle>
    <vehicle id="542" depart="108.40">
        <route edges="-5 -1"/>
    </vehicle>
    <vehicle id="543" depart="108.60">
        <route edges="-5 -1 -2 -7"/>
    </vehicle>
    <vehicle id="551" depart="110.20">
        <route edges="-2 -7"/>
    </vehicle>
    <vehicle id="552" depart="110.40">
        <route edges="6 12"/>
    </vehicle>
    <vehicle id="553" depart="110.60">
        <route edges="6 12 8"/>
    </vehicle>
    <vehicle id="559" depart="111.80">
        <route edges="12"/>
    </vehicle>
    <vehicle id="560" depart="112.00">
        <route edges="8"/>
    </vehicle>
    <vehicle id="564" depart="112.80">
        <route edges="-13#0"/>
    </vehicle>
    <vehicle id="571" depart="114.20">
        <route edges="-5 -1 -2"/>
    </vehicle>
    <vehicle id="574" depart="114.80">
        <route edges="-1"/>
    </vehicle>
    <vehicle id="575" depart="115.00">
        <route edges="-10 -5 -1 -2 -7"/>
    </vehicle>
    <vehicle id="584" depart="116.80">
        <route edges="-1 -2"/>
    </vehicle>
    <vehicle id="585" depart="117.00">
        <route edges="-13#0"/>
    </vehicle>
    <vehicle id="588" depart="117.60">
        <route edges="-10 -5 -1 -2"/>
    </vehicle>
    <vehicle id="592" depart="118.40">
        <route edges="-1"/>
    </vehicle>
    <vehicle id="596" depart="119.20">
        <route edges="-10 -5 -1"/>
    </vehicle>
    <vehicle id="598" depart="119.60">
        <route edges="4 12"/>
    </vehicle>
    <vehicle id="602" depart="120.40">
        <route edges="-2"/>
    </vehicle>
    <vehicle id="603" depart="120.60">
        <route edges="-2"/>
    </vehicle>
    <vehicle id="604" depart="120.80">
        <route edges="-10 -5"/>
    </vehicle>
    <vehicle id="605" depart="121.00">
        <route edges="-10 -5"/>
    </vehicle>
    <vehicle id="607" depart="121.40">
        <route edges="6 12"/>
    </vehicle>
    <vehicle id="609" depart="121.80">
        <route edges="-10 -13#0"/>
    </vehicle>
    <vehicle id="610" depart="122.00">
        <route edges="4 12 8 11"/>
    </vehicle>
    <vehicle id="613" depart="122.60">
        <route edges="6 12 8 11"/>
    </vehicle>
    <vehicle id="616" depart="123.20">
        <route edges="4 12"/>
    </vehicle>
    <vehicle id="618" depart="123.60">
        <route edges="-1 -2 -3"/>
    </vehicle>
    <vehicle id="621" depart="124.20">
        <route edges="-2 -3"/>
    </vehicle>
    <vehicle id="626" depart="125.20">
        <route edges="12 8 11"/>
    </vehicle>
    <vehicle id="629" depart="125.80">
        <route edges="-2 -3"/>
    </vehicle>
    <vehicle id="630" depart="126.00">
        <route edges="-10 -5 -1"/>
    </vehicle>
    <vehicle id="635" depart="127.00">
        <route edges="-5"/>
    </vehicle>
    <vehicle id="636" depart="127.20">
        <route edges="-10 -5 -1 -2"/>
    </vehicle>
    <vehicle id="640" depart="128.00">
        <route edges="-1"/>
    </vehicle>
    <vehicle id="645" depart="129.00">
        <route edges="-10 -5 -1 -2"/>
    </vehicle>
    <vehicle id="651" depart="130.20">
        <route edges="8 11"/>
    </vehicle>
    <vehicle id="654" depart="130.80">
        <route edges="-2"/>
    </vehicle>
    <vehicle id="655" depart="131.00">
        <route edges="-10 -13#0 -13#1"/>
    </vehicle>
    <vehicle id="657" depart="131.40">
        <route edges="-13#0"/>
    </vehicle>
    <vehicle id="661" depart="132.20">
        <route edges="-1 -2"/>
    </vehicle>
    <vehicle id="664" depart="132.80">
        <route edges="8 11"/>
    </vehicle>
    <vehicle id="666" depart="133.20">
        <route edges="-5 -1 -2 -3"/>
    </vehicle>
    <vehicle id="673" depart="134.60">
        <route edges="9 8"/>
    </vehicle>
    <vehicle id="691" depart="138.20">
        <route edges="4 12 8 11"/>
    </vehicle>
    <vehicle id="692" depart="138.40">
        <route edges="-10 -13#0 -13#1"/>
    </vehicle>
    <vehicle id="695" depart="139.00">
        <route edges="-5 -1"/>
    </vehicle>
    <vehicle id="699" depart="139.80">
        <route edges="-10 -13#0 -13#1"/>
    </vehicle>
    <vehicle id="705" depart="141.00">
        <route edges="-13#0"/>
    </vehicle>
    <vehicle id="706" depart="141.20">
        <route edges="-5 -1 -2 -7"/>
    </vehicle>
    <vehicle id="712" depart="142.40">
        <route edges="-2 -3"/>
    </vehicle>
    <vehicle id="713" depart="142.60">
        <route edges="4 12 8"/>
    </vehicle>
    <vehicle id="717" depart="143.40">
        <route edges="6 12 8 11"/>
    </vehicle>
    <vehicle id="719" depart="143.80">
        <route edges="12"/>
    </vehicle>
    <vehicle id="721" depart="144.20">
        <route edges="-5 -1 -2 -7"/>
    </vehicle>
    <vehicle id="722" depart="144.40">
        <route edges="4 12"/>
    </vehicle>
    <vehicle id="727" depart="145.40">
        <route edges="12 8"/>
    </vehicle>
    <vehicle id="732" depart="146.40">
        <route edges="-10 -5 -1 -2"/>
    </vehicle>
    <vehicle id="733" depart="146.60">
        <route edges="8 11"/>
    </vehicle>
    <vehicle id="737" depart="147.40">
        <route edges="12"/>
    </vehicle>
    <vehicle id="739" depart="147.80">
        <route edges="4 12"/>
    </vehicle>
    <vehicle id="741" depart="148.20">
        <route edges="-1 -2 -7"/>
    </vehicle>
    <vehicle id="742" depart="148.40">
        <route edges="-2 -7"/>
    </vehicle>
    <vehicle id="743" depart="148.60">
        <route edges="-5 -1 -2 -7"/>
    </vehicle>
    <vehicle id="747" depart="149.40">
        <route edges="9 8"/>
    </vehicle>
    <vehicle id="748" depart="149.60">
        <route edges="-1 -2 -7"/>
    </vehicle>
    <vehicle id="750" depart="150.00">
        <route edges="4 12 8"/>
    </vehicle>
    <vehicle id="751" depart="150.20">
        <route edges="-10 -5 -1 -2 -7"/>
    </vehicle>
    <vehicle id="754" depart="150.80">
        <route edges="-2"/>
    </vehicle>
    <vehicle id="756" depart="151.20">
        <route edges="4 12 8"/>
    </vehicle>
    <vehicle id="759" depart="151.80">
        <route edges="-2 -7"/>
    </vehicle>
    <vehicle id="760" depart="152.00">
        <route edges="-13#0"/>
    </vehicle>
    <vehicle id="763" depart="152.60">
        <route edges="-13#0 -13#1"/>
    </vehicle>
    <vehicle id="769" depart="153.80">
        <route edges="-1 -2 -7"/>
    </vehicle>
    <vehicle id="772" depart="154.40">
        <route edges="12"/>
    </vehicle>
    <vehicle id="773" depart="154.60">
        <route edges="8 11"/>
    </vehicle>
    <vehicle id="776" depart="155.20">
        <route edges="-10 -13#0 -13#1"/>
    </vehicle>
    <vehicle id="781" depart="156.20">
        <route edges="-1 -2"/>
    </vehicle>
    <vehicle id="782" depart="156.40">
        <route edges="9 8 11"/>
    </vehicle>
    <vehicle id="783" depart="156.60">
        <route edges="12 8 11"/>
    </vehicle>
    <vehicle id="786" depart="157.20">
        <route edges="-5 -1 -2 -7"/>
    </vehicle>
    <vehicle id="792" depart="158.40">
        <route edges="-10 -13#0"/>
    </vehicle>
    <vehicle id="801" depart="160.20">
        <route edges="4 12 8 11"/>
    </vehicle>
    <vehicle id="802" depart="160.40">
        <route edges="4 12"/>
    </vehicle>
    <vehicle id="803" depart="160.60">
        <route edges="12"/>
    </vehicle>
    <vehicle id="804" depart="160.80">
        <route edges="-1"/>
    </vehicle>
    <vehicle id="806" depart="161.20">
        <route edges="4 12 8 11"/>
    </vehicle>
    <vehicle id="807" depart="161.40">
        <route edges="-5 -1 -2 -7"/>
    </vehicle>
    <vehicle id="808" depart="161.60">
        <route edges="-5 -1 -2 -7"/>
    </vehicle>
    <vehicle id="812" depart="162.40">
        <route edges="-1"/>
    </vehicle>
    <vehicle id="813" depart="162.60">
        <route edges="-5 -1 -2 -3"/>
    </vehicle>
    <vehicle id="816" depart="163.20">
        <route edges="6 12"/>
    </vehicle>
    <vehicle id="819" depart="163.80">
        <route edges="-2 -3"/>
    </vehicle>
    <vehicle id="820" depart="164.00">
        <route edges="-13#0 -13#1"/>
    </vehicle>
    <vehicle id="822" depart="164.40">
        <route edges="-2 -7"/>
    </vehicle>
    <vehicle id="824" depart="164.80">
        <route edges="-10 -5 -1 -2"/>
    </vehicle>
    <vehicle id="834" depart="166.80">
        <route edges="12"/>
    </vehicle>
    <vehicle id="836" depart="167.20">
        <route edges="6 12 8 11"/>
    </vehicle>
    <vehicle id="837" depart="167.40">
        <route edges="-2 -3"/>
    </vehicle>
    <vehicle id="840" depart="168.00">
        <route edges="12 8 11"/>
    </vehicle>
    <vehicle id="845" depart="169.00">
        <route edges="9 8 11"/>
    </vehicle>
    <vehicle id="846" depart="169.20">
        <route edges="-10 -5"/>
    </vehicle>
    <vehicle id="848" depart="169.60">
        <route edges="-10 -5 -1 -2"/>
    </vehicle>
    <vehicle id="849" depart="169.80">
        <route edges="-5 -1 -2 -3"/>
    </vehicle>
    <vehicle id="851" depart="170.20">
        <route edges="-2 -7"/>
    </vehicle>
    <vehicle id="855" depart="171.00">
        <route edges="12 8 11"/>
    </vehicle>
    <vehicle id="857" depart="171.40">
        <route edges="-2 -7"/>
    </vehicle>
    <vehicle id="859" depart="171.80">
        <route edges="6 12 8 11"/>
    </vehicle>
    <vehicle id="862" depart="172.40">
        <route edges="6 12 8 11"/>
    </vehicle>
    <vehicle id="863" depart="172.60">
        <route edges="12 8 11"/>
    </vehicle>
    <vehicle id="869" depart="173.80">
        <route edges="-1 -2"/>
    </vehicle>
    <vehicle id="870" depart="174.00">
        <route edges="-10 -5 -1 -2 -7"/>
    </vehicle>
    <vehicle id="874" depart="174.80">
        <route edges="-10 -13#0 -13#1"/>
    </vehicle>
    <vehicle id="875" depart="175.00">
        <route edges="-2 -7"/>
    </vehicle>
    <vehicle id="878" depart="175.60">
        <route edges="-2"/>
    </vehicle>
    <vehicle id="879" depart="175.80">
        <route edges="6 12 8 11"/>
    </vehicle>
    <vehicle id="884" depart="176.80">
        <route edges="-13#0 -13#1"/>
    </vehicle>
    <vehicle id="886" depart="177.20">
        <route edges="-2"/>
    </vehicle>
    <vehicle id="887" depart="177.40">
        <route edges="9 8 11"/>
    </vehicle>
    <vehicle id="888" depart="177.60">
        <route edges="-13#0"/>
    </vehicle>
    <vehicle id="892" depart="178.40">
        <route edges="-13#0 -13#1"/>
    </vehicle>
    <vehicle id="896" depart="179.20">
        <route edges="12 8"/>
    </vehicle>
    <vehicle id="901" depart="180.20">
        <route edges="-1 -2 -3"/>
    </vehicle>
    <vehicle id="904" depart="180.80">
        <route edges="12 8"/>
    </vehicle>
    <vehicle id="908" depart="181.60">
        <route edges="-2 -7"/>
    </vehicle>
    <vehicle id="911" depart="182.20">
        <route edges="6 12 8"/>
    </vehicle>
    <vehicle id="914" depart="182.80">
        <route edges="9 8"/>
    </vehicle>
    <vehicle id="915" depart="183.00">
        <route edges="-2 -3"/>
    </vehicle>
    <vehicle id="916" depart="183.20">
        <route edges="9 8"/>
    </vehicle>
    <vehicle id="924" depart="184.80">
        <route edges="-10 -13#0"/>
    </vehicle>
    <vehicle id="931" depart="186.20">
        <route edges="-1 -2 -7"/>
    </vehicle>
    <vehicle id="932" depart="186.40">
        <route edges="-10 -13#0"/>
    </vehicle>
    <vehicle id="934" depart="186.80">
        <route edges="-13#0 -13#1"/>
    </vehicle>
    <vehicle id="935" depart="187.00">
        <route edges="6 12 8"/>
    </vehicle>
    <vehicle id="937" depart="187.40">
        <route edges="-1 -2 -7"/>
    </vehicle>
    <vehicle id="939" depart="187.80">
        <route edges="-10 -5 -1 -2"/>
    </vehicle>
    <vehicle id="940" depart="188.00">
        <route edges="-5"/>
    </vehicle>
    <vehicle id="941" depart="188.20">
        <route edges="8 11"/>
    </vehicle>
    <vehicle id="945" depart="189.00">
        <route edges="-10 -13#0"/>
    </vehicle>
    <vehicle id="947" depart="189.40">
        <route edges="-5"/>
    </vehicle>
    <vehicle id="948" depart="189.60">
        <route edges="-5"/>
    </vehicle>
    <vehicle id="956" depart="191.20">
        <route edges="-10 -5 -1 -2"/>
    </vehicle>
    <vehicle id="962" depart="192.40">
        <route edges="-1 -2 -3"/>
    </vehicle>
    <vehicle id="963" depart="192.60">
        <route edges="8 11"/>
    </vehicle>
    <vehicle id="966" depart="193.20">
        <route edges="-1 -2"/>
    </vehicle>
    <vehicle id="971" depart="194.20">
        <route edges="6 12 8"/>
    </vehicle>
    <vehicle id="974" depart="194.80">
        <route edges="8"/>
    </vehicle>