<?xml version='1.0' encoding='UTF-8'?>
<!-- generated on 2024-02-27 15:04:49 by Eclipse SUMO netconvert Version 1.19.0
<configuration xmlns:xsi="http://www.w3.org/2001/XMLSchema-instance" xsi:noNamespaceSchemaLocation="http://sumo.dlr.de/xsd/netconvertConfiguration.xsd">

    <input>
        <type-files value="/home/PJLAB/fudaocheng/CARLA/Co-Simulation/Sumo/util/data/opendrive_netconvert.typ.xml"/>
        <opendrive-files value="Town05.xodr"/>
    </input>

    <output>
        <output-file value="/tmp/tmp6mk699y8/Town05.net.xml"/>
        <output.original-names value="true"/>
    </output>

    <processing>
        <geometry.remove value="true"/>
        <geometry.min-radius.fix value="true"/>
    </processing>

    <tls_building>
        <tls.discard-loaded value="true"/>
    </tls_building>

    <junctions>
        <no-turnarounds.except-deadend value="true"/>
    </junctions>

    <formats>
        <opendrive.import-all-lanes value="true"/>
        <opendrive.curve-resolution value="1"/>
    </formats>

</configuration>
-->
<net xmlns:xsi="http://www.w3.org/2001/XMLSchema-instance" version="1.16" junctionCornerDetail="5" rectangularLaneCut="true" limitTurnSpeed="5.50" xsi:noNamespaceSchemaLocation="http://sumo.dlr.de/xsd/net_file.xsd">
  <location netOffset="270.79,200.32" convBoundary="0.00,0.00,473.10,399.44" origBoundary="0.000000,0.000000,0.000000,0.000000" projParameter="+proj=tmerc +lat_0=0 +lon_0=0 +k=1 +x_0=0 +y_0=0 +datum=WGS84 +units=m +geoidgrids=egm96_15.gtx +vunits=m +no_defs "/>
  <edge id=":1126_0" function="internal">
    <lane id=":1126_0_0" index="0" disallow="all" speed="1.39" length="30.18" width="0.50" shape="235.20,297.26 205.02,297.31">
      <param key="origId" value="1141_-3"/>
    </lane>
  </edge>
  <edge id=":1126_1" function="internal">
    <lane id=":1126_1_0" index="0" disallow="pedestrian tram rail_urban rail rail_electric rail_fast ship" speed="10.09" length="3.07" width="3.50" shape="235.20,295.26 232.26,296.14,0.01">
      <param key="origId" value="1201_-1"/>
      <param key="signalID" value="2393"/>
    </lane>
  </edge>
  <edge id=":1126_2" function="internal">
    <lane id=":1126_2_0" index="0" disallow="pedestrian tram rail_urban rail rail_electric rail_fast ship" speed="13.89" length="30.18" width="3.50" shape="235.20,295.26 205.02,295.31">
      <param key="origId" value="1141_-2"/>
      <param key="signalID" value="2394"/>
    </lane>
    <lane id=":1126_2_1" index="1" disallow="pedestrian tram rail_urban rail rail_electric rail_fast ship" speed="13.89" length="30.18" width="3.50" shape="235.19,291.76 205.01,291.81">
      <param key="origId" value="1141_-1"/>
      <param key="signalID" value="2394"/>
    </lane>
  </edge>
  <edge id=":1126_4" function="internal">
    <lane id=":1126_4_0" index="0" disallow="pedestrian tram rail_urban rail rail_electric rail_fast ship" speed="10.72" length="5.75" width="3.50" shape="235.19,291.76 229.51,290.91,0.01">
      <param key="origId" value="1182_-1"/>
      <param key="signalID" value="2394 2396"/>
    </lane>
  </edge>
  <edge id=":1126_20" function="internal">
    <lane id=":1126_20_0" index="0" disallow="pedestrian tram rail_urban rail rail_electric rail_fast ship" speed="10.09" length="16.01" width="3.50" shape="232.26,296.14,0.01 232.07,296.19,0.01 229.35,298.97,0.02 227.04,303.60,0.04 225.13,310.08,0.06">
      <param key="origId" value="1201_-1"/>
      <param key="signalID" value="2393"/>
    </lane>
  </edge>
  <edge id=":1126_21" function="internal">
    <lane id=":1126_21_0" index="0" disallow="pedestrian tram rail_urban rail rail_electric rail_fast ship" speed="10.72" length="20.59" width="3.50" shape="229.51,290.91,0.01 228.24,290.72,0.01 223.29,287.57,0.03 220.34,282.32,0.04 219.38,274.96,0.06">
      <param key="origId" value="1182_-1"/>
      <param key="signalID" value="2394 2396"/>
    </lane>
  </edge>
  <edge id=":1126_5" function="internal">
    <lane id=":1126_5_0" index="0" disallow="all" speed="1.39" length="35.70" width="0.50" shape="228.38,275.01,0.06 228.70,285.62,0.06 229.19,292.94,0.06 228.95,300.17,0.06 227.08,310.52,0.06">
      <param key="origId" value="1291_3"/>
    </lane>
  </edge>
  <edge id=":1126_6" function="internal">
    <lane id=":1126_6_0" index="0" disallow="pedestrian tram rail_urban rail rail_electric rail_fast ship" speed="8.21" length="15.00" width="3.50" shape="226.38,275.00,0.06 226.91,279.28,0.04 228.56,282.33,0.03 231.31,284.16,0.01 235.18,284.76">
      <param key="origId" value="1174_1"/>
    </lane>
  </edge>
  <edge id=":1126_7" function="internal">
    <lane id=":1126_7_0" index="0" disallow="pedestrian tram rail_urban rail rail_electric rail_fast ship" speed="13.89" length="34.88" width="3.50" shape="226.38,275.00,0.06 226.70,285.48,0.06 227.20,292.71,0.06 226.97,299.85,0.06 225.13,310.08,0.06">
      <param key="origId" value="1291_2"/>
      <param key="signalID" value="2393"/>
    </lane>
    <lane id=":1126_7_1" index="1" disallow="pedestrian tram rail_urban rail rail_electric rail_fast ship" speed="13.89" length="34.88" width="3.50" shape="222.88,274.98,0.06 223.20,285.23,0.06 223.71,292.30,0.06 223.51,299.29,0.06 221.72,309.29,0.06">
      <param key="origId" value="1291_1"/>
      <param key="signalID" value="2393"/>
    </lane>
  </edge>
  <edge id=":1126_9" function="internal">
    <lane id=":1126_9_0" index="0" disallow="pedestrian tram rail_urban rail rail_electric rail_fast ship" speed="11.08" length="27.94" width="3.50" shape="222.88,274.98,0.06 221.73,282.33,0.04 218.37,287.59,0.03 212.79,290.75,0.02 205.01,291.81">
      <param key="origId" value="1222_1"/>
      <param key="signalID" value="2396"/>
    </lane>
  </edge>
  <edge id=":1126_10" function="internal">
    <lane id=":1126_10_0" index="0" disallow="all" speed="1.39" length="30.18" width="0.50" shape="205.00,282.81 235.18,282.76">
      <param key="origId" value="1140_3"/>
    </lane>
  </edge>
  <edge id=":1126_11" function="internal">
    <lane id=":1126_11_0" index="0" disallow="pedestrian tram rail_urban rail rail_electric rail_fast ship" speed="8.69" length="5.16" width="3.50" shape="205.00,284.81 209.74,284.19,0.02 210.08,284.00,0.02">
      <param key="origId" value="1211_1"/>
      <param key="signalID" value="2395"/>
    </lane>
  </edge>
  <edge id=":1126_12" function="internal">
    <lane id=":1126_12_0" index="0" disallow="pedestrian tram rail_urban rail rail_electric rail_fast ship" speed="13.89" length="30.18" width="3.50" shape="205.00,284.81 235.18,284.76">
      <param key="origId" value="1140_2"/>
      <param key="signalID" value="2396"/>
    </lane>
    <lane id=":1126_12_1" index="1" disallow="pedestrian tram rail_urban rail rail_electric rail_fast ship" speed="13.89" length="30.18" width="3.50" shape="205.01,288.31 235.19,288.26">
      <param key="origId" value="1140_1"/>
      <param key="signalID" value="2396"/>
    </lane>
  </edge>
  <edge id=":1126_14" function="internal">
    <lane id=":1126_14_0" index="0" disallow="pedestrian tram rail_urban rail rail_electric rail_fast ship" speed="11.06" length="6.53" width="3.50" shape="205.01,288.31 211.48,289.16,0.01">
      <param key="origId" value="1236_1"/>
      <param key="signalID" value="2396"/>
    </lane>
  </edge>
  <edge id=":1126_22" function="internal">
    <lane id=":1126_22_0" index="0" disallow="pedestrian tram rail_urban rail rail_electric rail_fast ship" speed="8.69" length="11.55" width="3.50" shape="210.08,284.00,0.02 213.14,282.33,0.03 215.18,279.25,0.04 215.88,274.94,0.06">
      <param key="origId" value="1211_1"/>
      <param key="signalID" value="2395"/>
    </lane>
  </edge>
  <edge id=":1126_23" function="internal">
    <lane id=":1126_23_0" index="0" disallow="pedestrian tram rail_urban rail rail_electric rail_fast ship" speed="11.06" length="26.30" width="3.50" shape="211.48,289.16,0.01 214.38,289.54,0.02 220.20,293.35,0.03 222.61,299.88,0.04 221.72,309.29,0.06">
      <param key="origId" value="1236_1"/>
      <param key="signalID" value="2396"/>
    </lane>
  </edge>
  <edge id=":1126_15" function="internal">
    <lane id=":1126_15_0" index="0" disallow="all" speed="1.39" length="32.52" width="0.50" shape="212.94,307.28,0.06 214.60,297.84,0.06 214.73,291.25,0.06 214.20,284.59,0.06 213.88,274.93,0.06">
      <param key="origId" value="1290_-3"/>
    </lane>
  </edge>
  <edge id=":1126_16" function="internal">
    <lane id=":1126_16_0" index="0" disallow="pedestrian tram rail_urban rail rail_electric rail_fast ship" speed="8.58" length="19.21" width="3.50" shape="214.89,307.72,0.06 215.34,302.28,0.04 213.85,298.40,0.03 210.41,296.08,0.02 205.02,295.31">
      <param key="origId" value="1231_-1"/>
      <param key="signalID" value="2394"/>
    </lane>
  </edge>
  <edge id=":1126_17" function="internal">
    <lane id=":1126_17_0" index="0" disallow="pedestrian tram rail_urban rail rail_electric rail_fast ship" speed="13.89" length="33.34" width="3.50" shape="214.89,307.72,0.06 216.58,298.16,0.06 216.72,291.49,0.06 216.20,284.73,0.06 215.88,274.94,0.06">
      <param key="origId" value="1290_-2"/>
      <param key="signalID" value="2395"/>
    </lane>
    <lane id=":1126_17_1" index="1" disallow="pedestrian tram rail_urban rail rail_electric rail_fast ship" speed="13.89" length="33.34" width="3.50" shape="218.30,308.51,0.06 220.04,298.73,0.06 220.22,291.89,0.06 219.70,284.98,0.06 219.38,274.96,0.06">
      <param key="origId" value="1290_-1"/>
      <param key="signalID" value="2395"/>
    </lane>
  </edge>
  <edge id=":1126_19" function="internal">
    <lane id=":1126_19_0" index="0" disallow="pedestrian tram rail_urban rail rail_electric rail_fast ship" speed="12.23" length="28.46" width="3.50" shape="218.30,308.51,0.06 221.10,299.66,0.04 224.85,293.33,0.02 229.54,289.53,0.01 235.19,288.26">
      <param key="origId" value="1193_-1"/>
      <param key="signalID" value="2395"/>
    </lane>
  </edge>
  <edge id=":1292_0" function="internal">
    <lane id=":1292_0_0" index="0" disallow="all" speed="1.39" length="26.57" width="0.50" shape="295.49,303.83,0.00 294.78,277.27,0.00">
      <param key="origId" value="1420_-3"/>
    </lane>
  </edge>
  <edge id=":1292_1" function="internal">
    <lane id=":1292_1_0" index="0" disallow="pedestrian tram rail_urban rail rail_electric rail_fast ship" speed="7.85" length="13.25" width="3.50" shape="297.49,303.78,0.00 296.91,300.01,0.00 295.39,297.32,0.00 292.94,295.71,0.00 289.56,295.18">
      <param key="origId" value="1319_-1"/>
    </lane>
  </edge>
  <edge id=":1292_2" function="internal">
    <lane id=":1292_2_0" index="0" disallow="pedestrian tram rail_urban rail rail_electric rail_fast ship" speed="13.89" length="26.57" width="3.50" shape="297.49,303.78,0.00 296.78,277.22,0.00">
      <param key="origId" value="1420_-2"/>
      <param key="signalID" value="2400"/>
    </lane>
    <lane id=":1292_2_1" index="1" disallow="pedestrian tram rail_urban rail rail_electric rail_fast ship" speed="13.89" length="26.57" width="3.50" shape="300.99,303.69,0.00 300.28,277.12,0.00">
      <param key="origId" value="1420_-1"/>
      <param key="signalID" value="2400"/>
    </lane>
  </edge>
  <edge id=":1292_4" function="internal">
    <lane id=":1292_4_0" index="0" disallow="pedestrian tram rail_urban rail rail_electric rail_fast ship" speed="10.41" length="25.63" width="3.50" shape="300.99,303.69,0.00 301.81,296.66,0.00 304.69,291.70,0.00 309.65,288.80,0.00 316.68,287.97">
      <param key="origId" value="1360_-1"/>
      <param key="signalID" value="2400"/>
    </lane>
  </edge>
  <edge id=":1292_5" function="internal">
    <lane id=":1292_5_0" index="0" disallow="pedestrian tram rail_urban rail rail_electric rail_fast ship" speed="7.81" length="13.91" width="3.50" shape="316.50,294.97 312.69,295.42,0.00 310.00,296.99,0.00 308.43,299.68,0.00 307.99,303.50,0.00">
      <param key="origId" value="1356_-1"/>
      <param key="signalID" value="2398"/>
    </lane>
  </edge>
  <edge id=":1292_6" function="internal">
    <lane id=":1292_6_0" index="0" disallow="pedestrian tram rail_urban rail rail_electric rail_fast ship" speed="13.89" length="26.99" width="3.50" shape="316.50,294.97 289.56,295.18">
      <param key="origId" value="1299_-1"/>
    </lane>
    <lane id=":1292_6_1" index="1" disallow="pedestrian tram rail_urban rail rail_electric rail_fast ship" speed="13.89" length="26.99" width="3.50" shape="316.59,291.47 289.55,291.68">
      <param key="origId" value="1307_-1"/>
      <param key="signalID" value="2399 2399"/>
    </lane>
  </edge>
  <edge id=":1292_8" function="internal">
    <lane id=":1292_8_0" index="0" disallow="pedestrian tram rail_urban rail rail_electric rail_fast ship" speed="10.58" length="5.52" width="3.50" shape="316.59,291.47 311.13,290.65,0.00">
      <param key="origId" value="1376_-1"/>
      <param key="signalID" value="2399 2397"/>
    </lane>
  </edge>
  <edge id=":1292_18" function="internal">
    <lane id=":1292_18_0" index="0" disallow="pedestrian tram rail_urban rail rail_electric rail_fast ship" speed="10.58" length="18.95" width="3.50" shape="311.13,290.65,0.00 309.59,290.42,0.00 304.54,287.68,0.00 301.44,283.25,0.00 300.28,277.12,0.00">
      <param key="origId" value="1376_-1"/>
      <param key="signalID" value="2399 2397"/>
    </lane>
  </edge>
  <edge id=":1292_9" function="internal">
    <lane id=":1292_9_0" index="0" disallow="all" speed="1.39" length="26.57" width="0.50" shape="309.27,276.88,0.00 309.98,303.44,0.00">
      <param key="origId" value="1419_3"/>
    </lane>
  </edge>
  <edge id=":1292_10" function="internal">
    <lane id=":1292_10_0" index="0" disallow="pedestrian tram rail_urban rail rail_electric rail_fast ship" speed="8.02" length="13.61" width="3.50" shape="307.28,276.94,0.00 307.94,280.15,0.00 309.75,282.47,0.00 312.69,283.91,0.00 316.77,284.47">
      <param key="origId" value="1367_1"/>
    </lane>
  </edge>
  <edge id=":1292_11" function="internal">
    <lane id=":1292_11_0" index="0" disallow="pedestrian tram rail_urban rail rail_electric rail_fast ship" speed="13.89" length="26.57" width="3.50" shape="307.28,276.94,0.00 307.99,303.50,0.00">
      <param key="origId" value="1419_2"/>
      <param key="signalID" value="2398"/>
    </lane>
    <lane id=":1292_11_1" index="1" disallow="pedestrian tram rail_urban rail rail_electric rail_fast ship" speed="13.89" length="26.57" width="3.50" shape="303.78,277.03,0.00 304.49,303.59,0.00">
      <param key="origId" value="1419_1"/>
      <param key="signalID" value="2398"/>
    </lane>
  </edge>
  <edge id=":1292_13" function="internal">
    <lane id=":1292_13_0" index="0" disallow="pedestrian tram rail_urban rail rail_electric rail_fast ship" speed="10.07" length="23.42" width="3.50" shape="303.78,277.03,0.00 303.03,283.43,0.00 300.42,288.01,0.00 295.92,290.76,0.00 289.55,291.68">
      <param key="origId" value="1344_1"/>
      <param key="signalID" value="2397"/>
    </lane>
  </edge>
  <edge id=":1292_14" function="internal">
    <lane id=":1292_14_0" index="0" disallow="pedestrian tram rail_urban rail rail_electric rail_fast ship" speed="7.35" length="11.92" width="3.50" shape="289.54,284.68 292.78,284.21,0.00 295.07,282.81,0.00 296.40,280.48,0.00 296.78,277.22,0.00">
      <param key="origId" value="1351_1"/>
      <param key="signalID" value="2400"/>
    </lane>
  </edge>
  <edge id=":1292_15" function="internal">
    <lane id=":1292_15_0" index="0" disallow="pedestrian tram rail_urban rail rail_electric rail_fast ship" speed="13.89" length="27.18" width="3.50" shape="289.54,284.68 316.77,284.47">
      <param key="origId" value="1293_1"/>
    </lane>
    <lane id=":1292_15_1" index="1" disallow="pedestrian tram rail_urban rail rail_electric rail_fast ship" speed="13.89" length="27.18" width="3.50" shape="289.55,288.18 316.68,287.97">
      <param key="origId" value="1313_1"/>
      <param key="signalID" value="2397 2397"/>
    </lane>
  </edge>
  <edge id=":1292_17" function="internal">
    <lane id=":1292_17_0" index="0" disallow="pedestrian tram rail_urban rail rail_electric rail_fast ship" speed="10.44" length="5.53" width="3.50" shape="289.55,288.18 295.02,289.00,0.00">
      <param key="origId" value="1339_1"/>
      <param key="signalID" value="2399 2397"/>
    </lane>
  </edge>
  <edge id=":1292_19" function="internal">
    <lane id=":1292_19_0" index="0" disallow="pedestrian tram rail_urban rail rail_electric rail_fast ship" speed="10.44" length="18.81" width="3.50" shape="295.02,289.00,0.00 295.93,289.14,0.00 300.55,292.02,0.00 303.40,296.84,0.00 304.49,303.59,0.00">
      <param key="origId" value="1339_1"/>
      <param key="signalID" value="2399 2397"/>
    </lane>
  </edge>
  <edge id=":1427_0" function="internal">
    <lane id=":1427_0_0" index="0" disallow="all" speed="1.39" length="26.51" width="0.50" shape="234.39,206.68 207.89,206.61">
      <param key="origId" value="1439_-3"/>
    </lane>
  </edge>
  <edge id=":1427_1" function="internal">
    <lane id=":1427_1_0" index="0" disallow="pedestrian tram rail_urban rail rail_electric rail_fast ship" speed="7.71" length="3.83" width="3.50" shape="234.40,204.68 231.07,205.20,0.01 230.69,205.45,0.02">
      <param key="origId" value="1481_-1"/>
      <param key="signalID" value="2401"/>
    </lane>
  </edge>
  <edge id=":1427_2" function="internal">
    <lane id=":1427_2_0" index="0" disallow="pedestrian tram rail_urban rail rail_electric rail_fast ship" speed="13.89" length="26.51" width="3.50" shape="234.40,204.68 207.89,204.61">
      <param key="origId" value="1439_-2"/>
      <param key="signalID" value="2402"/>
    </lane>
    <lane id=":1427_2_1" index="1" disallow="pedestrian tram rail_urban rail rail_electric rail_fast ship" speed="13.89" length="26.51" width="3.50" shape="234.41,201.18 207.90,201.11">
      <param key="origId" value="1439_-1"/>
      <param key="signalID" value="2402"/>
    </lane>
  </edge>
  <edge id=":1427_4" function="internal">
    <lane id=":1427_4_0" index="0" disallow="pedestrian tram rail_urban rail rail_electric rail_fast ship" speed="10.19" length="5.78" width="3.50" shape="234.41,201.18 228.69,200.30,0.01">
      <param key="origId" value="1464_-1"/>
      <param key="signalID" value="2402"/>
    </lane>
  </edge>
  <edge id=":1427_20" function="internal">
    <lane id=":1427_20_0" index="0" disallow="pedestrian tram rail_urban rail rail_electric rail_fast ship" speed="7.71" length="9.13" width="3.50" shape="230.69,205.45,0.02 228.69,206.77,0.03 227.25,209.41,0.04 226.75,213.10,0.06">
      <param key="origId" value="1481_-1"/>
      <param key="signalID" value="2401"/>
    </lane>
  </edge>
  <edge id=":1427_21" function="internal">
    <lane id=":1427_21_0" index="0" disallow="pedestrian tram rail_urban rail rail_electric rail_fast ship" speed="10.19" length="18.05" width="3.50" shape="228.69,200.30,0.01 228.09,200.21,0.01 223.62,197.35,0.03 220.99,192.59,0.04 220.21,185.94,0.06">
      <param key="origId" value="1464_-1"/>
      <param key="signalID" value="2402"/>
    </lane>
  </edge>
  <edge id=":1427_5" function="internal">
    <lane id=":1427_5_0" index="0" disallow="all" speed="1.39" length="27.01" width="0.50" shape="229.21,186.10,0.06 228.75,213.12,0.06">
      <param key="origId" value="1552_3"/>
    </lane>
  </edge>
  <edge id=":1427_6" function="internal">
    <lane id=":1427_6_0" index="0" disallow="pedestrian tram rail_urban rail rail_electric rail_fast ship" speed="7.51" length="12.41" width="3.50" shape="227.21,186.07,0.06 227.60,189.61,0.04 228.94,192.14,0.03 231.21,193.66,0.01 234.42,194.18">
      <param key="origId" value="1473_1"/>
      <param key="signalID" value="2404"/>
    </lane>
  </edge>
  <edge id=":1427_7" function="internal">
    <lane id=":1427_7_0" index="0" disallow="pedestrian tram rail_urban rail rail_electric rail_fast ship" speed="13.89" length="27.06" width="3.50" shape="227.21,186.07,0.06 226.75,213.10,0.06">
      <param key="origId" value="1552_2"/>
      <param key="signalID" value="2401"/>
    </lane>
    <lane id=":1427_7_1" index="1" disallow="pedestrian tram rail_urban rail rail_electric rail_fast ship" speed="13.89" length="27.06" width="3.50" shape="223.71,186.01,0.06 223.25,213.08,0.06">
      <param key="origId" value="1552_1"/>
      <param key="signalID" value="2401"/>
    </lane>
  </edge>
  <edge id=":1427_9" function="internal">
    <lane id=":1427_9_0" index="0" disallow="pedestrian tram rail_urban rail rail_electric rail_fast ship" speed="10.51" length="24.85" width="3.50" shape="223.71,186.01,0.06 222.62,192.63,0.04 219.62,197.35,0.03 214.71,200.18,0.02 207.90,201.11">
      <param key="origId" value="1512_1"/>
      <param key="signalID" value="2404"/>
    </lane>
  </edge>
  <edge id=":1427_10" function="internal">
    <lane id=":1427_10_0" index="0" disallow="all" speed="1.39" length="26.51" width="0.50" shape="207.92,192.11 234.43,192.18">
      <param key="origId" value="1438_3"/>
    </lane>
  </edge>
  <edge id=":1427_11" function="internal">
    <lane id=":1427_11_0" index="0" disallow="pedestrian tram rail_urban rail rail_electric rail_fast ship" speed="7.94" length="4.39" width="3.50" shape="207.92,194.11 211.71,193.61,0.02 212.20,193.33,0.02">
      <param key="origId" value="1504_1"/>
      <param key="signalID" value="2403"/>
    </lane>
  </edge>
  <edge id=":1427_12" function="internal">
    <lane id=":1427_12_0" index="0" disallow="pedestrian tram rail_urban rail rail_electric rail_fast ship" speed="13.89" length="26.51" width="3.50" shape="207.92,194.11 234.42,194.18">
      <param key="origId" value="1438_2"/>
      <param key="signalID" value="2404"/>
    </lane>
    <lane id=":1427_12_1" index="1" disallow="pedestrian tram rail_urban rail rail_electric rail_fast ship" speed="13.89" length="26.51" width="3.50" shape="207.91,197.61 234.41,197.68">
      <param key="origId" value="1438_1"/>
      <param key="signalID" value="2404"/>
    </lane>
  </edge>
  <edge id=":1427_14" function="internal">
    <lane id=":1427_14_0" index="0" disallow="pedestrian tram rail_urban rail rail_electric rail_fast ship" speed="10.44" length="6.07" width="3.50" shape="207.91,197.61 213.92,198.49,0.01">
      <param key="origId" value="1516_1"/>
      <param key="signalID" value="2404"/>
    </lane>
  </edge>
  <edge id=":1427_22" function="internal">
    <lane id=":1427_22_0" index="0" disallow="pedestrian tram rail_urban rail rail_electric rail_fast ship" speed="7.94" length="9.30" width="3.50" shape="212.20,193.33,0.02 214.44,192.06,0.03 216.10,189.49,0.04 216.71,185.88,0.06">
      <param key="origId" value="1504_1"/>
      <param key="signalID" value="2403"/>
    </lane>
  </edge>
  <edge id=":1427_23" function="internal">
    <lane id=":1427_23_0" index="0" disallow="pedestrian tram rail_urban rail rail_electric rail_fast ship" speed="10.44" length="18.79" width="3.50" shape="213.92,198.49,0.01 214.65,198.59,0.02 219.46,201.50,0.03 222.32,206.33,0.04 223.25,213.08,0.06">
      <param key="origId" value="1516_1"/>
      <param key="signalID" value="2404"/>
    </lane>
  </edge>
  <edge id=":1427_15" function="internal">
    <lane id=":1427_15_0" index="0" disallow="all" speed="1.39" length="27.19" width="0.50" shape="214.25,213.03,0.06 214.71,185.84,0.06">
      <param key="origId" value="1551_-3"/>
    </lane>
  </edge>
  <edge id=":1427_16" function="internal">
    <lane id=":1427_16_0" index="0" disallow="pedestrian tram rail_urban rail rail_electric rail_fast ship" speed="7.85" length="13.55" width="3.50" shape="216.25,213.04,0.06 215.75,209.36,0.04 214.18,206.73,0.03 211.57,205.15,0.02 207.89,204.61">
      <param key="origId" value="1522_-1"/>
      <param key="signalID" value="2402"/>
    </lane>
  </edge>
  <edge id=":1427_17" function="internal">
    <lane id=":1427_17_0" index="0" disallow="pedestrian tram rail_urban rail rail_electric rail_fast ship" speed="13.89" length="27.15" width="3.50" shape="216.25,213.04,0.06 216.71,185.88,0.06">
      <param key="origId" value="1551_-2"/>
      <param key="signalID" value="2403"/>
    </lane>
    <lane id=":1427_17_1" index="1" disallow="pedestrian tram rail_urban rail rail_electric rail_fast ship" speed="13.89" length="27.15" width="3.50" shape="219.75,213.06,0.06 220.21,185.94,0.06">
      <param key="origId" value="1551_-1"/>
      <param key="signalID" value="2403"/>
    </lane>
  </edge>
  <edge id=":1427_19" function="internal">
    <lane id=":1427_19_0" index="0" disallow="pedestrian tram rail_urban rail rail_electric rail_fast ship" speed="10.34" length="24.21" width="3.50" shape="219.75,213.06,0.06 220.70,206.32,0.04 223.46,201.51,0.03 228.03,198.63,0.01 234.41,197.68">
      <param key="origId" value="1489_-1"/>
      <param key="signalID" value="2403"/>
    </lane>
  </edge>
  <edge id=":1574_0" function="internal">
    <lane id=":1574_0_0" index="0" disallow="all" speed="1.39" length="25.94" width="0.50" shape="293.19,213.04,0.00 293.38,187.10,0.00">
      <param key="origId" value="1675_-3"/>
    </lane>
  </edge>
  <edge id=":1574_1" function="internal">
    <lane id=":1574_1_0" index="0" disallow="pedestrian tram rail_urban rail rail_electric rail_fast ship" speed="7.58" length="12.45" width="3.50" shape="295.19,213.03,0.00 294.73,209.44,0.00 293.36,206.87,0.00 291.11,205.33,0.00 287.96,204.81">
      <param key="origId" value="1581_-1"/>
    </lane>
  </edge>
  <edge id=":1574_2" function="internal">
    <lane id=":1574_2_0" index="0" disallow="pedestrian tram rail_urban rail rail_electric rail_fast ship" speed="13.89" length="25.90" width="3.50" shape="295.19,213.03,0.00 295.38,187.11,0.00">
      <param key="origId" value="1675_-2"/>
      <param key="signalID" value="2408"/>
    </lane>
    <lane id=":1574_2_1" index="1" disallow="pedestrian tram rail_urban rail rail_electric rail_fast ship" speed="13.89" length="25.90" width="3.50" shape="298.69,213.01,0.00 298.88,187.14,0.00">
      <param key="origId" value="1675_-1"/>
      <param key="signalID" value="2408"/>
    </lane>
  </edge>
  <edge id=":1574_4" function="internal">
    <lane id=":1574_4_0" index="0" disallow="pedestrian tram rail_urban rail rail_electric rail_fast ship" speed="10.16" length="23.42" width="3.50" shape="298.69,213.01,0.00 299.58,206.72,0.00 302.31,202.21,0.00 306.88,199.49,0.00 313.29,198.57">
      <param key="origId" value="1697_-1"/>
      <param key="signalID" value="2406 2408"/>
    </lane>
  </edge>
  <edge id=":1574_5" function="internal">
    <lane id=":1574_5_0" index="0" disallow="pedestrian tram rail_urban rail rail_electric rail_fast ship" speed="7.47" length="12.13" width="3.50" shape="313.32,205.57 309.97,206.04,0.00 307.58,207.44,0.00 306.16,209.75,0.00 305.69,212.98,0.00">
      <param key="origId" value="1693_-1"/>
    </lane>
  </edge>
  <edge id=":1574_6" function="internal">
    <lane id=":1574_6_0" index="0" disallow="pedestrian tram rail_urban rail rail_electric rail_fast ship" speed="13.89" length="25.36" width="3.50" shape="313.32,205.57 287.96,204.81">
      <param key="origId" value="1615_-1"/>
    </lane>
    <lane id=":1574_6_1" index="1" disallow="pedestrian tram rail_urban rail rail_electric rail_fast ship" speed="13.89" length="25.36" width="3.50" shape="313.31,202.07 287.97,201.31">
      <param key="origId" value="1623_-1"/>
      <param key="signalID" value="2407 2407"/>
    </lane>
  </edge>
  <edge id=":1574_8" function="internal">
    <lane id=":1574_8_0" index="0" disallow="pedestrian tram rail_urban rail rail_electric rail_fast ship" speed="10.18" length="6.54" width="3.50" shape="313.31,202.07 306.95,201.16,0.00 306.85,201.09,0.00">
      <param key="origId" value="1715_-1"/>
      <param key="signalID" value="2407"/>
    </lane>
  </edge>
  <edge id=":1574_18" function="internal">
    <lane id=":1574_18_0" index="0" disallow="pedestrian tram rail_urban rail rail_electric rail_fast ship" speed="10.18" length="17.19" width="3.50" shape="306.85,201.09,0.00 302.43,198.37,0.00 299.74,193.69,0.00 298.88,187.14,0.00">
      <param key="origId" value="1715_-1"/>
      <param key="signalID" value="2407"/>
    </lane>
  </edge>
  <edge id=":1574_9" function="internal">
    <lane id=":1574_9_0" index="0" disallow="all" speed="1.39" length="25.77" width="0.50" shape="307.88,187.20,0.00 307.69,212.98,0.00">
      <param key="origId" value="1674_3"/>
    </lane>
  </edge>
  <edge id=":1574_10" function="internal">
    <lane id=":1574_10_0" index="0" disallow="pedestrian tram rail_urban rail rail_electric rail_fast ship" speed="7.50" length="12.35" width="3.50" shape="305.88,187.19,0.00 306.32,190.65,0.00 307.70,193.11,0.00 310.02,194.59,0.00 313.28,195.07">
      <param key="origId" value="1707_1"/>
      <param key="signalID" value="2405"/>
    </lane>
  </edge>
  <edge id=":1574_11" function="internal">
    <lane id=":1574_11_0" index="0" disallow="pedestrian tram rail_urban rail rail_electric rail_fast ship" speed="13.89" length="25.82" width="3.50" shape="305.88,187.19,0.00 305.69,212.98,0.00">
      <param key="origId" value="1674_2"/>
      <param key="signalID" value="2406"/>
    </lane>
    <lane id=":1574_11_1" index="1" disallow="pedestrian tram rail_urban rail rail_electric rail_fast ship" speed="13.89" length="25.82" width="3.50" shape="302.38,187.16,0.00 302.19,213.00,0.00">
      <param key="origId" value="1674_1"/>
      <param key="signalID" value="2406"/>
    </lane>
  </edge>
  <edge id=":1574_13" function="internal">
    <lane id=":1574_13_0" index="0" disallow="pedestrian tram rail_urban rail rail_electric rail_fast ship" speed="10.09" length="23.01" width="3.50" shape="302.38,187.16,0.00 301.44,193.36,0.00 298.72,197.79,0.00 294.23,200.44,0.00 287.97,201.31">
      <param key="origId" value="1597_1"/>
      <param key="signalID" value="2405"/>
    </lane>
  </edge>
  <edge id=":1574_14" function="internal">