<?xml version="1.0" encoding="UTF-8"?>

<!-- generated on 2023-04-06 11:07:15 by Eclipse SUMO netedit Version v1_15_0+0596-65718631903
<configuration xmlns:xsi="http://www.w3.org/2001/XMLSchema-instance" xsi:noNamespaceSchemaLocation="http://sumo.dlr.de/xsd/netconvertConfiguration.xsd">

    <input>
        <sumo-net-file value="data/networkFiles/CarlaTown05/Town05.net.xml"/>
    </input>

    <output>
        <output-file value="data/networkFiles/CarlaTown05/Town05.net.xml"/>
    </output>

    <processing>
        <geometry.min-radius.fix.railways value="false"/>
        <geometry.max-grade.fix value="false"/>
        <offset.disable-normalization value="true"/>
        <lefthand value="0"/>
    </processing>

    <junctions>
        <no-turnarounds value="true"/>
        <junctions.corner-detail value="5"/>
        <junctions.limit-turn-speed value="5.50"/>
        <rectangular-lane-cut value="1"/>
    </junctions>

    <pedestrian>
        <walkingareas value="0"/>
    </pedestrian>

</configuration>
-->

<net version="1.9" junctionCornerDetail="5" rectangularLaneCut="true" limitTurnSpeed="5.50" xmlns:xsi="http://www.w3.org/2001/XMLSchema-instance" xsi:noNamespaceSchemaLocation="http://sumo.dlr.de/xsd/net_file.xsd">

    <location netOffset="270.80,200.32" convBoundary="0.06,0.00,473.11,399.44" origBoundary="-270.80,-200.32,202.31,199.12" projParameter="!"/>

    <type id="bidirectional" priority="1" speed="1.39" disallow="pedestrian tram rail_urban rail rail_electric rail_fast ship" width="3.65"/>
    <type id="biking" priority="-1" speed="5.56" allow="bicycle" width="1.50"/>
    <type id="border" priority="0" speed="1.39" disallow="all" discard="1" width="0.10"/>
    <type id="driving" priority="1" speed="13.89" disallow="pedestrian tram rail_urban rail rail_electric rail_fast ship" width="3.65"/>
    <type id="entry" priority="1" speed="22.22" disallow="pedestrian tram rail_urban rail rail_electric rail_fast ship" width="3.65"/>
    <type id="exit" priority="1" speed="22.22" disallow="pedestrian tram rail_urban rail rail_electric rail_fast ship" width="3.65"/>
    <type id="median" priority="0" speed="1.39" disallow="all" discard="1" width="0.10"/>
    <type id="mwyEntry" priority="1" speed="22.22" allow="private emergency authority army vip passenger hov taxi bus coach delivery truck trailer motorcycle evehicle custom1 custom2" width="3.65"/>
    <type id="mwyExit" priority="1" speed="22.22" allow="private emergency authority army vip passenger hov taxi bus coach delivery truck trailer motorcycle evehicle custom1 custom2" width="3.65"/>
    <type id="none" priority="0" speed="1.39" disallow="all" discard="1" width="1.00"/>
    <type id="offRamp" priority="1" speed="22.22" allow="private emergency authority army vip passenger hov taxi bus coach delivery truck trailer motorcycle evehicle custom1 custom2" width="3.65"/>
    <type id="onRamp" priority="1" speed="22.22" allow="private emergency authority army vip passenger hov taxi bus coach delivery truck trailer motorcycle evehicle custom1 custom2" width="3.65"/>
    <type id="parking" priority="1" speed="1.39" disallow="pedestrian tram rail_urban rail rail_electric rail_fast ship" width="2.50"/>
    <type id="rail" priority="3" speed="33.33" allow="rail_urban rail rail_electric rail_fast" width="3.65"/>
    <type id="restricted" priority="0" speed="13.89" disallow="all" width="3.65"/>
    <type id="roadWorks" priority="0" speed="1.39" allow="authority" width="3.65"/>
    <type id="shoulder" priority="0" speed="1.39" disallow="all" discard="1" width="1.00"/>
    <type id="sidewalk" priority="-2" speed="2.78" allow="pedestrian" width="2.50"/>
    <type id="special1" priority="1" speed="22.22" allow="custom1" discard="1" width="3.65"/>
    <type id="special2" priority="1" speed="22.22" allow="custom2" discard="1" width="3.65"/>
    <type id="special3" priority="1" speed="22.22" allow="custom1 custom2" discard="1" width="3.65"/>
    <type id="stop" priority="1" speed="13.89" disallow="pedestrian tram rail_urban rail rail_electric rail_fast ship" width="3.65"/>
    <type id="tram" priority="2" speed="13.89" allow="tram" width="3.65"/>

    <edge id=":1050_0" function="internal">
        <lane id=":1050_0_0" index="0" disallow="pedestrian tram rail_urban rail rail_electric rail_fast ship" speed="7.12" length="10.82" width="3.50" shape="156.58,56.14,0.06 154.07,56.62,0.05 152.27,58.05,0.03 151.18,60.43,0.02 150.79,63.75"/>
    </edge>
    <edge id=":1050_1" function="internal">
        <lane id=":1050_1_0" index="0" disallow="pedestrian tram rail_urban rail rail_electric rail_fast ship" speed="13.89" length="22.00" width="3.50" shape="156.58,56.14,0.06 134.58,56.24,0.06"/>
        <lane id=":1050_1_1" index="1" disallow="pedestrian tram rail_urban rail rail_electric rail_fast ship" speed="13.89" length="22.00" width="3.50" shape="156.57,52.64,0.06 134.57,52.74,0.06"/>
    </edge>
    <edge id=":1050_3" function="internal">
        <lane id=":1050_3_0" index="0" disallow="pedestrian tram rail_urban rail rail_electric rail_fast ship" speed="13.89" length="22.00" width="3.50" shape="134.53,45.74,0.06 156.54,45.64,0.06"/>
        <lane id=":1050_3_1" index="1" disallow="pedestrian tram rail_urban rail rail_electric rail_fast ship" speed="13.89" length="22.00" width="3.50" shape="134.55,49.24,0.06 156.55,49.14,0.06"/>
    </edge>
    <edge id=":1050_5" function="internal">
        <lane id=":1050_5_0" index="0" disallow="pedestrian tram rail_urban rail rail_electric rail_fast ship" speed="9.82" length="5.39" width="3.50" shape="134.55,49.24,0.06 139.88,50.08,0.05"/>
    </edge>
    <edge id=":1050_8" function="internal">
        <lane id=":1050_8_0" index="0" disallow="pedestrian tram rail_urban rail rail_electric rail_fast ship" speed="9.82" length="16.64" width="3.50" shape="139.88,50.08,0.05 140.17,50.13,0.04 144.17,52.83,0.03 146.54,57.36,0.02 147.29,63.72"/>
    </edge>
    <edge id=":1050_6" function="internal">
        <lane id=":1050_6_0" index="0" disallow="pedestrian tram rail_urban rail rail_electric rail_fast ship" speed="7.01" length="10.65" width="3.50" shape="140.29,63.65 139.96,60.40,0.02 138.90,58.08,0.03 137.10,56.70,0.05 134.58,56.24,0.06"/>
    </edge>
    <edge id=":1050_7" function="internal">
        <lane id=":1050_7_0" index="0" disallow="pedestrian tram rail_urban rail rail_electric rail_fast ship" speed="9.90" length="21.97" width="3.50" shape="143.79,63.68 144.64,57.34,0.02 147.05,52.80,0.03 151.02,50.07,0.04 156.55,49.14,0.06"/>
    </edge>
    <edge id=":1070_0" function="internal">
        <lane id=":1070_0_0" index="0" disallow="pedestrian tram rail_urban rail rail_electric rail_fast ship" speed="7.52" length="12.33" width="3.50" shape="295.38,124.20 294.96,120.49 293.68,117.84 291.57,116.26 288.61,115.73"/>
    </edge>
    <edge id=":1070_1" function="internal">
        <lane id=":1070_1_0" index="0" disallow="pedestrian tram rail_urban rail rail_electric rail_fast ship" speed="13.89" length="26.04" width="3.50" shape="295.38,124.20 295.37,98.16"/>
        <lane id=":1070_1_1" index="1" disallow="pedestrian tram rail_urban rail rail_electric rail_fast ship" speed="13.89" length="26.04" width="3.50" shape="298.88,124.20 298.87,98.16"/>
    </edge>
    <edge id=":1070_3" function="internal">
        <lane id=":1070_3_0" index="0" disallow="pedestrian tram rail_urban rail rail_electric rail_fast ship" speed="10.25" length="6.94" width="3.50" shape="298.88,124.20 299.72,117.31"/>
    </edge>
    <edge id=":1070_16" function="internal">
        <lane id=":1070_16_0" index="0" disallow="pedestrian tram rail_urban rail rail_electric rail_fast ship" speed="10.25" length="17.04" width="3.50" shape="299.72,117.31 299.74,117.19 302.31,112.20 306.60,109.22 312.60,108.26"/>
    </edge>
    <edge id=":1070_4" function="internal">
        <lane id=":1070_4_0" index="0" disallow="pedestrian tram rail_urban rail rail_electric rail_fast ship" speed="7.60" length="12.66" width="3.50" shape="312.55,115.26 309.63,115.80 307.55,117.47 306.30,120.27 305.88,124.20"/>
    </edge>
    <edge id=":1070_5" function="internal">
        <lane id=":1070_5_0" index="0" disallow="pedestrian tram rail_urban rail rail_electric rail_fast ship" speed="13.89" length="23.97" width="3.50" shape="312.55,115.26 288.61,115.73"/>
        <lane id=":1070_5_1" index="1" disallow="pedestrian tram rail_urban rail rail_electric rail_fast ship" speed="13.89" length="23.97" width="3.50" shape="312.58,111.76 288.60,112.23"/>
    </edge>
    <edge id=":1070_7" function="internal">
        <lane id=":1070_7_0" index="0" disallow="pedestrian tram rail_urban rail rail_electric rail_fast ship" speed="9.89" length="5.20" width="3.50" shape="312.58,111.76 307.43,111.00"/>
    </edge>
    <edge id=":1070_17" function="internal">
        <lane id=":1070_17_0" index="0" disallow="pedestrian tram rail_urban rail rail_electric rail_fast ship" speed="9.89" length="16.78" width="3.50" shape="307.43,111.00 306.58,110.87 302.30,108.31 299.73,104.07 298.87,98.16"/>
    </edge>
    <edge id=":1070_8" function="internal">
        <lane id=":1070_8_0" index="0" disallow="pedestrian tram rail_urban rail rail_electric rail_fast ship" speed="7.09" length="10.76" width="3.50" shape="305.87,98.16 306.29,101.03 307.56,103.09 309.67,104.33 312.63,104.76"/>
    </edge>
    <edge id=":1070_9" function="internal">
        <lane id=":1070_9_0" index="0" disallow="pedestrian tram rail_urban rail rail_electric rail_fast ship" speed="13.89" length="26.04" width="3.50" shape="305.87,98.16 305.88,124.20"/>
        <lane id=":1070_9_1" index="1" disallow="pedestrian tram rail_urban rail rail_electric rail_fast ship" speed="13.89" length="26.04" width="3.50" shape="302.37,98.16 302.38,124.20"/>
    </edge>
    <edge id=":1070_11" function="internal">
        <lane id=":1070_11_0" index="0" disallow="pedestrian tram rail_urban rail rail_electric rail_fast ship" speed="9.96" length="6.08" width="3.50" shape="302.37,98.16 301.53,104.18"/>
    </edge>
    <edge id=":1070_18" function="internal">
        <lane id=":1070_18_0" index="0" disallow="pedestrian tram rail_urban rail rail_electric rail_fast ship" speed="9.96" length="16.37" width="3.50" shape="301.53,104.18 301.51,104.31 298.93,108.70 294.63,111.34 288.60,112.23"/>
    </edge>
    <edge id=":1070_12" function="internal">
        <lane id=":1070_12_0" index="0" disallow="pedestrian tram rail_urban rail rail_electric rail_fast ship" speed="7.19" length="11.16" width="3.50" shape="288.59,105.23 291.56,104.79 293.68,103.46 294.95,101.25 295.37,98.16"/>
    </edge>
    <edge id=":1070_13" function="internal">
        <lane id=":1070_13_0" index="0" disallow="pedestrian tram rail_urban rail rail_electric rail_fast ship" speed="13.89" length="24.02" width="3.50" shape="288.59,105.23 312.63,104.76"/>
        <lane id=":1070_13_1" index="1" disallow="pedestrian tram rail_urban rail rail_electric rail_fast ship" speed="13.89" length="24.02" width="3.50" shape="288.60,108.73 312.60,108.26"/>
    </edge>
    <edge id=":1070_15" function="internal">
        <lane id=":1070_15_0" index="0" disallow="pedestrian tram rail_urban rail rail_electric rail_fast ship" speed="10.20" length="4.88" width="3.50" shape="288.60,108.73 293.42,109.50"/>
    </edge>
    <edge id=":1070_19" function="internal">
        <lane id=":1070_19_0" index="0" disallow="pedestrian tram rail_urban rail rail_electric rail_fast ship" speed="10.20" length="18.72" width="3.50" shape="293.42,109.50 294.63,109.69 298.93,112.59 301.52,117.43 302.38,124.20"/>
    </edge>
    <edge id=":1148_0" function="internal">
        <lane id=":1148_0_0" index="0" disallow="pedestrian tram rail_urban rail rail_electric rail_fast ship" speed="13.89" length="15.01" width="3.50" shape="298.89,355.78 298.48,340.77"/>
        <lane id=":1148_0_1" index="1" disallow="pedestrian tram rail_urban rail rail_electric rail_fast ship" speed="13.89" length="15.01" width="3.50" shape="302.38,355.68 301.98,340.68"/>
    </edge>
    <edge id=":1148_2" function="internal">
        <lane id=":1148_2_0" index="0" disallow="pedestrian tram rail_urban rail rail_electric rail_fast ship" speed="6.50" length="9.24" width="3.50" shape="315.00,349.78,0.04 312.48,350.09,0.03 310.71,351.15,0.02 309.67,352.95,0.01 309.38,355.50"/>
    </edge>
    <edge id=":1148_3" function="internal">
        <lane id=":1148_3_0" index="0" disallow="pedestrian tram rail_urban rail rail_electric rail_fast ship" speed="6.79" length="9.48" width="3.50" shape="308.98,340.49 309.41,342.98,0.01 310.57,344.77,0.02 312.46,345.87,0.03 315.06,346.28,0.04"/>
    </edge>
    <edge id=":1148_4" function="internal">
        <lane id=":1148_4_0" index="0" disallow="pedestrian tram rail_urban rail rail_electric rail_fast ship" speed="13.89" length="15.01" width="3.50" shape="308.98,340.49 309.38,355.50"/>
        <lane id=":1148_4_1" index="1" disallow="pedestrian tram rail_urban rail rail_electric rail_fast ship" speed="13.89" length="15.01" width="3.50" shape="305.48,340.59 305.88,355.59"/>
    </edge>
    <edge id=":1162_0" function="internal">
        <lane id=":1162_0_0" index="0" disallow="pedestrian tram rail_urban rail rail_electric rail_fast ship" speed="13.89" length="15.01" width="3.50" shape="295.35,64.81 295.35,49.81"/>
        <lane id=":1162_0_1" index="1" disallow="pedestrian tram rail_urban rail rail_electric rail_fast ship" speed="13.89" length="15.01" width="3.50" shape="298.85,64.81 298.85,49.80"/>
    </edge>
    <edge id=":1162_2" function="internal">
        <lane id=":1162_2_0" index="0" disallow="pedestrian tram rail_urban rail rail_electric rail_fast ship" speed="6.77" length="9.49" width="3.50" shape="311.80,58.89,0.04 309.20,59.35,0.03 307.34,60.49,0.02 306.22,62.31,0.01 305.85,64.81"/>
    </edge>
    <edge id=":1162_3" function="internal">
        <lane id=":1162_3_0" index="0" disallow="pedestrian tram rail_urban rail rail_electric rail_fast ship" speed="6.53" length="9.28" width="3.50" shape="305.85,49.80 306.21,52.33,0.01 307.30,54.11,0.02 309.12,55.13,0.03 311.67,55.39,0.04"/>
    </edge>
    <edge id=":1162_4" function="internal">
        <lane id=":1162_4_0" index="0" disallow="pedestrian tram rail_urban rail rail_electric rail_fast ship" speed="13.89" length="15.01" width="3.50" shape="305.85,49.80 305.85,64.81"/>
        <lane id=":1162_4_1" index="1" disallow="pedestrian tram rail_urban rail rail_electric rail_fast ship" speed="13.89" length="15.01" width="3.50" shape="302.35,49.80 302.35,64.81"/>
    </edge>
    <edge id=":1175_0" function="internal">
        <lane id=":1175_0_0" index="0" disallow="pedestrian tram rail_urban rail rail_electric rail_fast ship" speed="8.45" length="15.71" width="3.50" shape="161.12,115.87 156.39,116.41 153.00,118.03 150.96,120.72 150.25,124.48"/>
    </edge>
    <edge id=":1175_1" function="internal">
        <lane id=":1175_1_0" index="0" disallow="pedestrian tram rail_urban rail rail_electric rail_fast ship" speed="13.89" length="31.95" width="3.50" shape="161.12,115.87 129.17,115.91"/>
        <lane id=":1175_1_1" index="1" disallow="pedestrian tram rail_urban rail rail_electric rail_fast ship" speed="13.89" length="31.95" width="3.50" shape="161.11,112.37 129.16,112.41"/>
    </edge>
    <edge id=":1175_3" function="internal">
        <lane id=":1175_3_0" index="0" disallow="pedestrian tram rail_urban rail rail_electric rail_fast ship" speed="10.76" length="6.99" width="3.50" shape="161.11,112.37 154.17,111.52"/>
    </edge>
    <edge id=":1175_16" function="internal">
        <lane id=":1175_16_0" index="0" disallow="pedestrian tram rail_urban rail rail_electric rail_fast ship" speed="10.76" length="19.62" width="3.50" shape="154.17,111.52 153.35,111.42 147.83,108.56 144.54,103.78 143.49,97.08"/>
    </edge>
    <edge id=":1175_4" function="internal">
        <lane id=":1175_4_0" index="0" disallow="pedestrian tram rail_urban rail rail_electric rail_fast ship" speed="8.27" length="15.27" width="3.50" shape="150.49,97.15 151.13,100.75 153.11,103.32 156.43,104.86 161.10,105.37"/>
    </edge>
    <edge id=":1175_5" function="internal">
        <lane id=":1175_5_0" index="0" disallow="pedestrian tram rail_urban rail rail_electric rail_fast ship" speed="13.89" length="27.33" width="3.50" shape="150.49,97.15 150.25,124.48"/>
        <lane id=":1175_5_1" index="1" disallow="pedestrian tram rail_urban rail rail_electric rail_fast ship" speed="13.89" length="27.33" width="3.50" shape="146.99,97.12 146.75,124.45"/>
    </edge>
    <edge id=":1175_7" function="internal">
        <lane id=":1175_7_0" index="0" disallow="pedestrian tram rail_urban rail rail_electric rail_fast ship" speed="10.85" length="5.28" width="3.50" shape="146.99,97.12 146.08,102.32"/>
    </edge>
    <edge id=":1175_17" function="internal">
        <lane id=":1175_17_0" index="0" disallow="pedestrian tram rail_urban rail rail_electric rail_fast ship" speed="10.85" length="21.40" width="3.50" shape="146.08,102.32 145.82,103.80 142.46,108.58 136.91,111.45 129.16,112.41"/>
    </edge>
    <edge id=":1175_8" function="internal">
        <lane id=":1175_8_0" index="0" disallow="pedestrian tram rail_urban rail rail_electric rail_fast ship" speed="8.39" length="15.50" width="3.50" shape="129.15,105.41 133.87,104.88 137.24,103.31 139.28,100.70 139.99,97.05"/>
    </edge>
    <edge id=":1175_9" function="internal">
        <lane id=":1175_9_0" index="0" disallow="pedestrian tram rail_urban rail rail_electric rail_fast ship" speed="13.89" length="31.95" width="3.50" shape="129.15,105.41 161.10,105.37"/>
        <lane id=":1175_9_1" index="1" disallow="pedestrian tram rail_urban rail rail_electric rail_fast ship" speed="13.89" length="31.95" width="3.50" shape="129.16,108.91 161.11,108.87"/>
    </edge>
    <edge id=":1175_11" function="internal">
        <lane id=":1175_11_0" index="0" disallow="pedestrian tram rail_urban rail rail_electric rail_fast ship" speed="10.79" length="6.88" width="3.50" shape="129.16,108.91 135.98,109.76"/>
    </edge>
    <edge id=":1175_18" function="internal">
        <lane id=":1175_18_0" index="0" disallow="pedestrian tram rail_urban rail rail_electric rail_fast ship" speed="10.79" length="19.91" width="3.50" shape="135.98,109.76 136.91,109.87 142.42,112.78 145.70,117.64 146.75,124.45"/>
    </edge>
    <edge id=":1175_12" function="internal">
        <lane id=":1175_12_0" index="0" disallow="pedestrian tram rail_urban rail rail_electric rail_fast ship" speed="8.32" length="15.44" width="3.50" shape="139.75,124.38 139.12,120.67 137.14,118.02 133.82,116.44 129.17,115.91"/>
    </edge>
    <edge id=":1175_13" function="internal">
        <lane id=":1175_13_0" index="0" disallow="pedestrian tram rail_urban rail rail_electric rail_fast ship" speed="13.89" length="27.33" width="3.50" shape="139.75,124.38 139.99,97.05"/>
        <lane id=":1175_13_1" index="1" disallow="pedestrian tram rail_urban rail rail_electric rail_fast ship" speed="13.89" length="27.33" width="3.50" shape="143.25,124.41 143.49,97.08"/>
    </edge>
    <edge id=":1175_15" function="internal">
        <lane id=":1175_15_0" index="0" disallow="pedestrian tram rail_urban rail rail_electric rail_fast ship" speed="10.90" length="5.36" width="3.50" shape="143.25,124.41 144.16,119.13"/>
    </edge>
    <edge id=":1175_19" function="internal">
        <lane id=":1175_19_0" index="0" disallow="pedestrian tram rail_urban rail rail_electric rail_fast ship" speed="10.90" length="21.54" width="3.50" shape="144.16,119.13 144.42,117.62 147.78,112.77 153.35,109.85 161.11,108.87"/>
    </edge>
    <edge id=":1260_0" function="internal">
        <lane id=":1260_0_0" index="0" disallow="pedestrian tram rail_urban rail rail_electric rail_fast ship" speed="7.98" length="14.11" width="3.50" shape="295.34,20.66 294.99,15.61 293.95,12.00 292.21,9.85 289.79,9.15"/>
    </edge>
    <edge id=":1260_1" function="internal">
        <lane id=":1260_1_0" index="0" disallow="pedestrian tram rail_urban rail rail_electric rail_fast ship" speed="11.17" length="28.46" width="3.50" shape="298.84,20.66 299.63,11.01 302.01,4.10 305.97,-0.05 311.52,-1.46"/>
    </edge>
    <edge id=":1260_2" function="internal">
        <lane id=":1260_2_0" index="0" disallow="pedestrian tram rail_urban rail rail_electric rail_fast ship" speed="8.07" length="14.31" width="3.50" shape="311.58,9.04 309.07,9.78 307.27,11.96 306.20,15.59 305.84,20.66"/>
    </edge>
    <edge id=":1260_3" function="internal">
        <lane id=":1260_3_0" index="0" disallow="pedestrian tram rail_urban rail rail_electric rail_fast ship" speed="13.89" length="21.81" width="3.50" shape="311.58,9.04 289.79,9.15"/>
        <lane id=":1260_3_1" index="1" disallow="pedestrian tram rail_urban rail rail_electric rail_fast ship" speed="13.89" length="21.81" width="3.50" shape="311.56,5.54 289.75,5.65"/>
        <lane id=":1260_3_2" index="2" disallow="pedestrian tram rail_urban rail rail_electric rail_fast ship" speed="13.89" length="21.81" width="3.50" shape="311.54,2.04 289.71,2.15"/>
    </edge>
    <edge id=":1260_6" function="internal">
        <lane id=":1260_6_0" index="0" disallow="pedestrian tram rail_urban rail rail_electric rail_fast ship" speed="13.89" length="21.86" width="3.50" shape="289.61,-8.35 311.49,-8.46"/>
        <lane id=":1260_6_1" index="1" disallow="pedestrian tram rail_urban rail rail_electric rail_fast ship" speed="13.89" length="21.86" width="3.50" shape="289.64,-4.85 311.51,-4.96"/>
        <lane id=":1260_6_2" index="2" disallow="pedestrian tram rail_urban rail rail_electric rail_fast ship" speed="13.89" length="21.86" width="3.50" shape="289.68,-1.35 311.52,-1.46"/>
    </edge>
    <edge id=":1260_9" function="internal">
        <lane id=":1260_9_0" index="0" disallow="pedestrian tram rail_urban rail rail_electric rail_fast ship" speed="11.10" length="3.68" width="3.50" shape="289.68,-1.35 293.26,-0.49"/>
    </edge>
    <edge id=":1260_10" function="internal">
        <lane id=":1260_10_0" index="0" disallow="pedestrian tram rail_urban rail rail_electric rail_fast ship" speed="11.10" length="24.72" width="3.50" shape="293.26,-0.49 295.22,-0.02 299.17,4.09 301.55,10.98 302.34,20.66"/>
    </edge>
    <edge id=":139_0" function="internal">
        <lane id=":139_0_0" index="0" disallow="pedestrian tram rail_urban rail rail_electric rail_fast ship" speed="7.91" length="13.70" width="3.50" shape="216.46,123.61,0.06 215.87,120.20,0.04 214.13,117.76,0.03 211.26,116.30,0.02 207.26,115.82"/>
    </edge>
    <edge id=":139_1" function="internal">
        <lane id=":139_1_0" index="0" disallow="pedestrian tram rail_urban rail rail_electric rail_fast ship" speed="13.89" length="25.57" width="3.50" shape="216.46,123.61,0.06 216.29,98.04,0.06"/>
        <lane id=":139_1_1" index="1" disallow="pedestrian tram rail_urban rail rail_electric rail_fast ship" speed="13.89" length="25.57" width="3.50" shape="219.96,123.58,0.06 219.79,98.01,0.06"/>
    </edge>
    <edge id=":139_3" function="internal">
        <lane id=":139_3_0" index="0" disallow="pedestrian tram rail_urban rail rail_electric rail_fast ship" speed="10.20" length="6.11" width="3.50" shape="219.96,123.58,0.06 220.78,117.53,0.04"/>
    </edge>
    <edge id=":139_16" function="internal">
        <lane id=":139_16_0" index="0" disallow="pedestrian tram rail_urban rail rail_electric rail_fast ship" speed="10.20" length="17.60" width="3.50" shape="220.78,117.53,0.04 220.83,117.12,0.04 223.56,112.50,0.03 228.12,109.72,0.02 234.54,108.79"/>
    </edge>
    <edge id=":139_4" function="internal">
        <lane id=":139_4_0" index="0" disallow="pedestrian tram rail_urban rail rail_electric rail_fast ship" speed="7.52" length="12.38" width="3.50" shape="234.55,115.79 231.21,116.28,0.02 228.83,117.73,0.03 227.41,120.15,0.04 226.96,123.53,0.06"/>
    </edge>
    <edge id=":139_5" function="internal">
        <lane id=":139_5_0" index="0" disallow="pedestrian tram rail_urban rail rail_electric rail_fast ship" speed="13.89" length="27.29" width="3.50" shape="234.55,115.79 207.26,115.82"/>
        <lane id=":139_5_1" index="1" disallow="pedestrian tram rail_urban rail rail_electric rail_fast ship" speed="13.89" length="27.29" width="3.50" shape="234.54,112.29 207.25,112.32"/>
    </edge>
    <edge id=":139_7" function="internal">
        <lane id=":139_7_0" index="0" disallow="pedestrian tram rail_urban rail rail_electric rail_fast ship" speed="10.17" length="6.23" width="3.50" shape="234.54,112.29 228.37,111.44,0.02"/>
    </edge>
    <edge id=":139_17" function="internal">
        <lane id=":139_17_0" index="0" disallow="pedestrian tram rail_urban rail rail_electric rail_fast ship" speed="10.17" length="17.15" width="3.50" shape="228.37,111.44,0.02 228.12,111.40,0.02 223.53,108.73,0.03 220.75,104.26,0.04 219.79,98.01,0.06"/>
    </edge>
    <edge id=":139_8" function="internal">
        <lane id=":139_8_0" index="0" disallow="pedestrian tram rail_urban rail rail_electric rail_fast ship" speed="7.49" length="12.14" width="3.50" shape="226.79,97.96,0.06 227.29,101.17,0.04 228.75,103.46,0.03 231.17,104.84,0.02 234.53,105.29"/>
    </edge>
    <edge id=":139_9" function="internal">
        <lane id=":139_9_0" index="0" disallow="pedestrian tram rail_urban rail rail_electric rail_fast ship" speed="13.89" length="25.57" width="3.50" shape="226.79,97.96,0.06 226.96,123.53,0.06"/>
        <lane id=":139_9_1" index="1" disallow="pedestrian tram rail_urban rail rail_electric rail_fast ship" speed="13.89" length="25.57" width="3.50" shape="223.29,97.99,0.06 223.46,123.56,0.06"/>
    </edge>
    <edge id=":139_11" function="internal">
        <lane id=":139_11_0" index="0" disallow="pedestrian tram rail_urban rail rail_electric rail_fast ship" speed="10.37" length="5.42" width="3.50" shape="223.29,97.99,0.06 222.46,103.35,0.05"/>
    </edge>
    <edge id=":139_18" function="internal">
        <lane id=":139_18_0" index="0" disallow="pedestrian tram rail_urban rail rail_electric rail_fast ship" speed="10.37" length="19.11" width="3.50" shape="222.46,103.35,0.05 222.32,104.25,0.04 219.33,108.73,0.03 214.31,111.42,0.02 207.25,112.32"/>
    </edge>
    <edge id=":139_12" function="internal">
        <lane id=":139_12_0" index="0" disallow="pedestrian tram rail_urban rail rail_electric rail_fast ship" speed="7.75" length="13.21" width="3.50" shape="207.24,105.32 211.22,104.86,0.02 214.05,103.49,0.03 215.74,101.22,0.05 216.29,98.04,0.06"/>
    </edge>
    <edge id=":139_13" function="internal">
        <lane id=":139_13_0" index="0" disallow="pedestrian tram rail_urban rail rail_electric rail_fast ship" speed="13.89" length="27.29" width="3.50" shape="207.24,105.32 234.53,105.29"/>
        <lane id=":139_13_1" index="1" disallow="pedestrian tram rail_urban rail rail_electric rail_fast ship" speed="13.89" length="27.29" width="3.50" shape="207.25,108.82 234.54,108.79"/>
    </edge>
    <edge id=":139_15" function="internal">
        <lane id=":139_15_0" index="0" disallow="pedestrian tram rail_urban rail rail_electric rail_fast ship" speed="10.49" length="6.62" width="3.50" shape="207.25,108.82 213.81,109.67,0.02"/>
    </edge>
    <edge id=":139_19" function="internal">
        <lane id=":139_19_0" index="0" disallow="pedestrian tram rail_urban rail rail_electric rail_fast ship" speed="10.49" length="18.33" width="3.50" shape="213.81,109.67,0.02 214.30,109.73,0.02 219.36,112.50,0.03 222.41,117.10,0.04 223.46,123.56,0.06"/>
    </edge>
    <edge id=":224_0" function="internal">
        <lane id=":224_0_0" index="0" disallow="pedestrian tram rail_urban rail rail_electric rail_fast ship" speed="7.58" length="12.59" width="3.50" shape="422.31,210.28,0.04 421.84,206.77,0.03 420.42,204.26,0.03 418.04,202.77,0.03 414.72,202.28,0.02"/>
    </edge>
    <edge id=":224_1" function="internal">
        <lane id=":224_1_0" index="0" disallow="pedestrian tram rail_urban rail rail_electric rail_fast ship" speed="13.89" length="18.42" width="3.50" shape="422.31,210.28,0.04 422.32,191.86,0.04"/>
    </edge>
    <edge id=":224_2" function="internal">
        <lane id=":224_2_0" index="0" disallow="pedestrian tram rail_urban rail rail_electric rail_fast ship" speed="13.89" length="18.42" width="3.50" shape="425.82,191.86,0.04 425.81,210.28,0.04"/>
    </edge>
    <edge id=":224_3" function="internal">
        <lane id=":224_3_0" index="0" disallow="pedestrian tram rail_urban rail rail_electric rail_fast ship" speed="8.83" length="4.76" width="3.50" shape="425.82,191.86,0.04 425.12,196.40,0.03 425.03,196.54,0.03"/>
    </edge>
    <edge id=":224_6" function="internal">
        <lane id=":224_6_0" index="0" disallow="pedestrian tram rail_urban rail rail_electric rail_fast ship" speed="8.83" length="12.57" width="3.50" shape="425.03,196.54,0.03 423.04,199.65,0.03 419.57,201.61,0.03 414.72,202.28,0.02"/>
    </edge>
    <edge id=":224_4" function="internal">
        <lane id=":224_4_0" index="0" disallow="pedestrian tram rail_urban rail rail_electric rail_fast ship" speed="7.36" length="11.71" width="3.50" shape="414.70,198.78,0.02 418.03,198.33,0.03 420.41,197.03,0.03 421.84,194.87,0.03 422.32,191.86,0.04"/>
    </edge>
    <edge id=":224_5" function="internal">
        <lane id=":224_5_0" index="0" disallow="pedestrian tram rail_urban rail rail_electric rail_fast ship" speed="9.01" length="18.25" width="3.50" shape="414.70,198.78,0.02 419.57,199.48,0.03 423.04,201.63,0.03 425.12,205.23,0.03 425.81,210.28,0.04"/>
    </edge>
    <edge id=":245_0" function="internal">
        <lane id=":245_0_0" index="0" disallow="pedestrian tram rail_urban rail rail_electric rail_fast ship" speed="6.82" length="9.93" width="3.50" shape="75.70,301.86,0.06 75.33,299.08,0.04 74.22,297.09,0.03 72.35,295.90,0.02 69.75,295.51"/>
    </edge>
    <edge id=":245_1" function="internal">