<routes>
    <route id="r_0" edges="E0 E1"/>
    <route id="r_1" edges="E0 -E2"/>
    <route id="r_2" edges="E0 E3"/>
    <route id="r_3" edges="-E1 -E2"/>
    <route id="r_4" edges="-E1 -E0"/>
    <route id="r_5" edges="-E1 E3"/>
    <route id="r_6" edges="E2 E1"/>
    <route id="r_7" edges="E2 E3"/>
    <route id="r_8" edges="E2 -E0"/>
    <route id="r_9" edges="-E3 -E0"/>
    <route id="r_10" edges="-E3 -E2"/>
    <route id="r_11" edges="-E3 E1"/>
    <vehicle id="0" depart="0.0" route="r_9"/>
    <vehicle id="1" depart="2.0" route="r_11"/>
    <vehicle id="2" depart="4.0" route="r_9"/>
    <vehicle id="3" depart="6.0" route="r_7"/>
    <vehicle id="4" depart="8.0" route="r_2"/>
    <vehicle id="5" depart="10.0" route="r_3"/>
    <vehicle id="6" depart="12.0" route="r_10"/>
    <vehicle id="7" depart="14.0" route="r_1"/>
    <vehicle id="8" depart="16.0" route="r_6"/>
    <vehicle id="9" depart="18.0" route="r_0"/>
    <vehicle id="10" depart="20.0" route="r_5"/>
    <vehicle id="11" depart="22.0" route="r_6"/>
    <vehicle id="12" depart="24.0" route="r_4"/>
    <vehicle id="13" depart="26.0" route="r_2"/>
    <vehicle id="14" depart="28.0" route="r_7"/>
    <vehicle id="15" depart="30.0" route="r_0"/>
    <vehicle id="16" depart="32.0" route="r_8"/>
    <vehicle id="17" depart="34.0" route="r_1"/>
    <vehicle id="18" depart="36.0" route="r_1"/>
    <vehicle id="19" depart="38.0" route="r_0"/>
    <vehicle id="20" depart="40.0" route="r_8"/>
    <vehicle id="21" depart="42.0" route="r_8"/>
    <vehicle id="22" depart="44.0" route="r_8"/>
    <vehicle id="23" depart="46.0" route="r_8"/>
    <vehicle id="24" depart="48.0" route="r_2"/>
    <vehicle id="25" depart="50.0" route="r_1"/>
    <vehicle id="26" depart="52.0" route="r_2"/>
    <vehicle id="27" depart="54.0" route="r_5"/>
    <vehicle id="28" depart="56.0" route="r_2"/>
    <vehicle id="29" depart="58.0" route="r_1"/>
    <vehicle id="30" depart="60.0" route="r_0"/>
    <vehicle id="31" depart="62.0" route="r_9"/>
    <vehicle id="32" depart="64.0" route="r_4"/>
    <vehicle id="33" depart="66.0" route="r_7"/>
    <vehicle id="34" depart="68.0" route="r_3"/>
    <vehicle id="35" depart="70.0" route="r_8"/>
    <vehicle id="36" depart="72.0" route="r_9"/>
    <vehicle id="37" depart="74.0" route="r_2"/>
    <vehicle id="38" depart="76.0" route="r_3"/>
    <vehicle id="39" depart="78.0" route="r_10"/>
    <vehicle id="40" depart="80.0" route="r_10"/>
    <vehicle id="41" depart="82.0" route="r_2"/>
    <vehicle id="42" depart="84.0" route="r_9"/>
    <vehicle id="43" depart="86.0" route="r_9"/>
    <vehicle id="44" depart="88.0" route="r_5"/>
    <vehicle id="45" depart="90.0" route="r_1"/>
    <vehicle id="46" depart="92.0" route="r_5"/>
    <vehicle id="47" depart="94.0" route="r_9"/>
    <vehicle id="48" depart="96.0" route="r_11"/>
    <vehicle id="49" depart="98.0" route="r_0"/>
    <vehicle id="50" depart="100.0" route="r_8"/>
    <vehicle id="51" depart="102.0" route="r_10"/>
    <vehicle id="52" depart="104.0" route="r_6"/>
    <vehicle id="53" depart="106.0" route="r_0"/>
    <vehicle id="54" depart="108.0" route="r_5"/>
    <vehicle id="55" depart="110.0" route="r_9"/>
    <vehicle id="56" depart="112.0" route="r_2"/>
    <vehicle id="57" depart="114.0" route="r_1"/>
    <vehicle id="58" depart="116.0" route="r_5"/>
    <vehicle id="59" depart="118.0" route="r_2"/>
    <vehicle id="60" depart="120.0" route="r_6"/>
    <vehicle id="61" depart="122.0" route="r_3"/>
    <vehicle id="62" depart="124.0" route="r_9"/>
    <vehicle id="63" depart="126.0" route="r_11"/>
    <vehicle id="64" depart="128.0" route="r_7"/>
    <!-- <vehicle id="65" depart="130.0" route="r_1"/> -->
    <vehicle id="66" depart="132.0" route="r_9"/>
    <vehicle id="67" depart="134.0" route="r_8"/>
    <vehicle id="68" depart="136.0" route="r_1"/>
    <vehicle id="69" depart="138.0" route="r_9"/>
    <vehicle id="70" depart="140.0" route="r_10"/>
    <vehicle id="71" depart="142.0" route="r_3"/>
    <vehicle id="72" depart="144.0" route="r_8"/>
    <vehicle id="73" depart="146.0" route="r_7"/>
    <vehicle id="74" depart="148.0" route="r_5"/>
    <vehicle id="75" depart="150.0" route="r_0"/>
    <vehicle id="76" depart="152.0" route="r_8"/>
    <vehicle id="77" depart="154.0" route="r_7"/>
    <vehicle id="78" depart="156.0" route="r_2"/>
    <vehicle id="79" depart="158.0" route="r_3"/>
    <vehicle id="80" depart="160.0" route="r_11"/>
    <vehicle id="81" depart="162.0" route="r_10"/>
    <vehicle id="82" depart="164.0" route="r_2"/>
    <vehicle id="83" depart="166.0" route="r_6"/>
    <vehicle id="84" depart="168.0" route="r_6"/>
    <vehicle id="85" depart="170.0" route="r_8"/>
    <vehicle id="86" depart="172.0" route="r_11"/>
    <vehicle id="87" depart="174.0" route="r_6"/>
    <vehicle id="88" depart="176.0" route="r_11"/>
    <!-- <vehicle id="89" depart="178.0" route="r_10"/> -->
    <vehicle id="90" depart="180.0" route="r_6"/>
    <vehicle id="91" depart="182.0" route="r_10"/>
    <!-- <vehicle id="92" depart="184.0" route="r_0"/> -->
    <vehicle id="93" depart="186.0" route="r_5"/>
    <vehicle id="94" depart="188.0" route="r_3"/>
    <!-- <vehicle id="95" depart="190.0" route="r_0"/> -->
    <vehicle id="96" depart="192.0" route="r_6"/>
    <vehicle id="97" depart="194.0" route="r_6"/>
    <vehicle id="98" depart="196.0" route="r_10"/>
    <vehicle id="99" depart="198.0" route="r_8"/>
    <vehicle id="100" depart="200.0" route="r_9"/>
    <vehicle id="101" depart="202.0" route="r_8"/>
    <vehicle id="102" depart="204.0" route="r_9"/>
    <vehicle id="103" depart="206.0" route="r_8"/>
    <vehicle id="104" depart="208.0" route="r_11"/>
    <vehicle id="105" depart="210.0" route="r_0"/>
    <!-- <vehicle id="106" depart="212.0" route="r_4"/> -->
    <!-- <vehicle id="107" depart="214.0" route="r_7"/> -->
    <vehicle id="108" depart="216.0" route="r_1"/>
    <!-- <vehicle id="109" depart="218.0" route="r_7"/> -->
    <vehicle id="110" depart="220.0" route="r_11"/>
    <vehicle id="111" depart="222.0" route="r_8"/>
    <vehicle id="112" depart="224.0" route="r_4"/>
    <vehicle id="113" depart="226.0" route="r_2"/>
    <vehicle id="114" depart="228.0" route="r_3"/>
    <vehicle id="115" depart="230.0" route="r_5"/>
    <vehicle id="116" depart="232.0" route="r_1"/>
    <vehicle id="117" depart="234.0" route="r_0"/>
    <vehicle id="118" depart="236.0" route="r_2"/>
    <vehicle id="119" depart="238.0" route="r_4"/>
    <vehicle id="120" depart="240.0" route="r_1"/>
    <vehicle id="121" depart="242.0" route="r_1"/>
    <vehicle id="122" depart="244.0" route="r_9"/>
    <vehicle id="123" depart="246.0" route="r_4"/>
    <vehicle id="124" depart="248.0" route="r_3"/>
    <vehicle id="125" depart="250.0" route="r_3"/>
    <vehicle id="126" depart="252.0" route="r_6"/>
    <vehicle id="127" depart="254.0" route="r_5"/>
    <vehicle id="128" depart="256.0" route="r_1"/>
    <vehicle id="129" depart="258.0" route="r_2"/>
    <vehicle id="130" depart="260.0" route="r_8"/>
    <vehicle id="131" depart="262.0" route="r_7"/>
    <vehicle id="132" depart="264.0" route="r_3"/>
    <vehicle id="133" depart="266.0" route="r_11"/>
    <vehicle id="134" depart="268.0" route="r_6"/>
    <vehicle id="135" depart="270.0" route="r_4"/>
    <vehicle id="136" depart="272.0" route="r_10"/>
    <vehicle id="137" depart="274.0" route="r_2"/>
    <vehicle id="138" depart="276.0" route="r_8"/>
    <vehicle id="139" depart="278.0" route="r_8"/>
    <vehicle id="140" depart="280.0" route="r_6"/>
    <vehicle id="141" depart="282.0" route="r_9"/>
    <vehicle id="142" depart="284.0" route="r_9"/>
    <vehicle id="143" depart="286.0" route="r_7"/>
    <vehicle id="144" depart="288.0" route="r_8"/>
    <vehicle id="145" depart="290.0" route="r_4"/>
    <vehicle id="146" depart="292.0" route="r_11"/>
    <vehicle id="147" depart="294.0" route="r_10"/>
    <vehicle id="148" depart="296.0" route="r_11"/>
    <vehicle id="149" depart="298.0" route="r_8"/>
    <vehicle id="150" depart="300.0" route="r_0"/>
    <vehicle id="151" depart="302.0" route="r_2"/>
    <vehicle id="152" depart="304.0" route="r_8"/>
    <vehicle id="153" depart="306.0" route="r_11"/>
    <vehicle id="154" depart="308.0" route="r_2"/>
    <vehicle id="155" depart="310.0" route="r_3"/>
    <vehicle id="156" depart="312.0" route="r_11"/>
    <vehicle id="157" depart="314.0" route="r_9"/>
    <vehicle id="158" depart="316.0" route="r_2"/>
    <vehicle id="159" depart="318.0" route="r_3"/>
    <vehicle id="160" depart="320.0" route="r_11"/>
    <vehicle id="161" depart="322.0" route="r_3"/>
    <vehicle id="162" depart="324.0" route="r_3"/>
    <vehicle id="163" depart="326.0" route="r_7"/>
    <vehicle id="164" depart="328.0" route="r_7"/>
    <vehicle id="165" depart="330.0" route="r_2"/>
    <vehicle id="166" depart="332.0" route="r_7"/>
    <vehicle id="167" depart="334.0" route="r_4"/>
    <vehicle id="168" depart="336.0" route="r_10"/>
    <vehicle id="169" depart="338.0" route="r_4"/>
    <vehicle id="170" depart="340.0" route="r_3"/>
    <vehicle id="171" depart="342.0" route="r_0"/>
    <vehicle id="172" depart="344.0" route="r_2"/>
    <vehicle id="173" depart="346.0" route="r_5"/>
    <vehicle id="174" depart="348.0" route="r_3"/>
    <vehicle id="175" depart="350.0" route="r_6"/>
    <vehicle id="176" depart="352.0" route="r_4"/>
    <vehicle id="177" depart="354.0" route="r_1"/>
    <vehicle id="178" depart="356.0" route="r_0"/>
    <vehicle id="179" depart="358.0" route="r_3"/>
    <vehicle id="180" depart="360.0" route="r_8"/>
    <vehicle id="181" depart="362.0" route="r_3"/>
    <vehicle id="182" depart="364.0" route="r_10"/>
    <vehicle id="183" depart="366.0" route="r_2"/>
    <vehicle id="184" depart="368.0" route="r_5"/>
    <vehicle id="185" depart="370.0" route="r_11"/>
    <vehicle id="186" depart="372.0" route="r_8"/>
    <vehicle id="187" depart="374.0" route="r_9"/>
    <vehicle id="188" depart="376.0" route="r_11"/>
    <vehicle id="189" depart="378.0" route="r_6"/>
    <vehicle id="190" depart="380.0" route="r_8"/>
    <vehicle id="191" depart="382.0" route="r_10"/>
    <vehicle id="192" depart="384.0" route="r_11"/>
    <vehicle id="193" depart="386.0" route="r_10"/>
    <vehicle id="194" depart="388.0" route="r_5"/>
    <vehicle id="195" depart="390.0" route="r_5"/>
    <vehicle id="196" depart="392.0" route="r_3"/>
    <vehicle id="197" depart="394.0" route="r_3"/>
    <vehicle id="198" depart="396.0" route="r_3"/>
    <vehicle id="199" depart="398.0" route="r_4"/>
    <vehicle id="200" depart="400.0" route="r_0"/>
    <vehicle id="201" depart="402.0" route="r_5"/>
    <vehicle id="202" depart="404.0" route="r_11"/>
    <vehicle id="203" depart="406.0" route="r_11"/>
    <vehicle id="204" depart="408.0" route="r_2"/>
    <vehicle id="205" depart="410.0" route="r_3"/>
    <vehicle id="206" depart="412.0" route="r_7"/>
    <vehicle id="207" depart="414.0" route="r_4"/>
    <vehicle id="208" depart="416.0" route="r_1"/>
    <vehicle id="209" depart="418.0" route="r_7"/>
    <vehicle id="210" depart="420.0" route="r_1"/>
    <vehicle id="211" depart="422.0" route="r_2"/>
    <vehicle id="212" depart="424.0" route="r_3"/>
    <vehicle id="213" depart="426.0" route="r_9"/>
    <vehicle id="214" depart="428.0" route="r_8"/>
    <vehicle id="215" depart="430.0" route="r_8"/>
    <vehicle id="216" depart="432.0" route="r_2"/>
    <vehicle id="217" depart="434.0" route="r_5"/>
    <vehicle id="218" depart="436.0" route="r_3"/>
    <vehicle id="219" depart="438.0" route="r_5"/>
    <vehicle id="220" depart="440.0" route="r_6"/>
    <vehicle id="221" depart="442.0" route="r_5"/>
    <vehicle id="222" depart="444.0" route="r_5"/>
    <vehicle id="223" depart="446.0" route="r_1"/>
    <vehicle id="224" depart="448.0" route="r_0"/>
    <vehicle id="225" depart="450.0" route="r_8"/>
    <vehicle id="226" depart="452.0" route="r_0"/>
    <vehicle id="227" depart="454.0" route="r_9"/>
    <vehicle id="228" depart="456.0" route="r_10"/>
    <vehicle id="229" depart="458.0" route="r_9"/>
    <vehicle id="230" depart="460.0" route="r_7"/>
    <vehicle id="231" depart="462.0" route="r_5"/>
    <vehicle id="232" depart="464.0" route="r_1"/>
    <vehicle id="233" depart="466.0" route="r_3"/>
    <vehicle id="234" depart="468.0" route="r_5"/>
    <vehicle id="235" depart="470.0" route="r_7"/>
    <vehicle id="236" depart="472.0" route="r_0"/>
    <vehicle id="237" depart="474.0" route="r_7"/>
    <vehicle id="238" depart="476.0" route="r_3"/>
    <vehicle id="239" depart="478.0" route="r_9"/>
    <vehicle id="240" depart="480.0" route="r_0"/>
    <vehicle id="241" depart="482.0" route="r_7"/>
    <vehicle id="242" depart="484.0" route="r_1"/>
    <vehicle id="243" depart="486.0" route="r_8"/>
    <vehicle id="244" depart="488.0" route="r_3"/>
    <vehicle id="245" depart="490.0" route="r_4"/>
    <vehicle id="246" depart="492.0" route="r_1"/>
    <vehicle id="247" depart="494.0" route="r_5"/>
    <vehicle id="248" depart="496.0" route="r_9"/>
    <vehicle id="249" depart="498.0" route="r_3"/>
    <vehicle id="250" depart="500.0" route="r_5"/>
    <vehicle id="251" depart="502.0" route="r_8"/>
    <vehicle id="252" depart="504.0" route="r_10"/>
    <vehicle id="253" depart="506.0" route="r_4"/>
    <vehicle id="254" depart="508.0" route="r_9"/>
    <vehicle id="255" depart="510.0" route="r_3"/>
    <vehicle id="256" depart="512.0" route="r_3"/>
    <vehicle id="257" depart="514.0" route="r_4"/>
    <vehicle id="258" depart="516.0" route="r_6"/>
    <vehicle id="259" depart="518.0" route="r_2"/>
    <vehicle id="260" depart="520.0" route="r_8"/>
    <vehicle id="261" depart="522.0" route="r_6"/>
    <vehicle id="262" depart="524.0" route="r_5"/>
    <vehicle id="263" depart="526.0" route="r_0"/>
    <vehicle id="264" depart="528.0" route="r_5"/>
    <vehicle id="265" depart="530.0" route="r_6"/>
    <vehicle id="266" depart="532.0" route="r_8"/>
    <vehicle id="267" depart="534.0" route="r_5"/>
    <vehicle id="268" depart="536.0" route="r_2"/>
    <vehicle id="269" depart="538.0" route="r_10"/>
    <vehicle id="270" depart="540.0" route="r_5"/>
    <vehicle id="271" depart="542.0" route="r_4"/>
    <vehicle id="272" depart="544.0" route="r_11"/>
    <vehicle id="273" depart="546.0" route="r_9"/>
    <vehicle id="274" depart="548.0" route="r_11"/>
    <vehicle id="275" depart="550.0" route="r_9"/>
    <vehicle id="276" depart="552.0" route="r_8"/>
    <vehicle id="277" depart="554.0" route="r_2"/>
    <vehicle id="278" depart="556.0" route="r_7"/>
    <vehicle id="279" depart="558.0" route="r_2"/>
    <vehicle id="280" depart="560.0" route="r_5"/>
    <vehicle id="281" depart="562.0" route="r_3"/>
    <vehicle id="282" depart="564.0" route="r_5"/>
    <vehicle id="283" depart="566.0" route="r_6"/>
    <vehicle id="284" depart="568.0" route="r_2"/>
    <vehicle id="285" depart="570.0" route="r_0"/>
    <vehicle id="286" depart="572.0" route="r_6"/>
    <vehicle id="287" depart="574.0" route="r_9"/>
    <vehicle id="288" depart="576.0" route="r_9"/>
    <vehicle id="289" depart="578.0" route="r_4"/>
    <vehicle id="290" depart="580.0" route="r_6"/>
    <vehicle id="291" depart="582.0" route="r_10"/>
    <vehicle id="292" depart="584.0" route="r_5"/>
    <vehicle id="293" depart="586.0" route="r_5"/>
    <vehicle id="294" depart="588.0" route="r_3"/>
    <vehicle id="295" depart="590.0" route="r_6"/>
    <vehicle id="296" depart="592.0" route="r_9"/>
    <vehicle id="297" depart="594.0" route="r_1"/>
    <vehicle id="298" depart="596.0" route="r_0"/>
    <vehicle id="299" depart="598.0" route="r_8"/>
    <vehicle id="300" depart="600.0" route="r_0"/>
    <vehicle id="301" depart="602.0" route="r_7"/>
    <vehicle id="302" depart="604.0" route="r_5"/>
    <vehicle id="303" depart="606.0" route="r_6"/>
    <vehicle id="304" depart="608.0" route="r_11"/>
    <vehicle id="305" depart="610.0" route="r_5"/>
    <vehicle id="306" depart="612.0" route="r_3"/>
    <vehicle id="307" depart="614.0" route="r_7"/>
    <vehicle id="308" depart="616.0" route="r_7"/>
    <vehicle id="309" depart="618.0" route="r_1"/>
    <vehicle id="310" depart="620.0" route="r_4"/>
    <vehicle id="311" depart="622.0" route="r_0"/>
    <vehicle id="312" depart="624.0" route="r_0"/>
    <vehicle id="313" depart="626.0" route="r_4"/>
    <vehicle id="314" depart="628.0" route="r_10"/>
    <vehicle id="315" depart="630.0" route="r_9"/>
    <vehicle id="316" depart="632.0" route="r_8"/>
    <vehicle id="317" depart="634.0" route="r_3"/>
    <vehicle id="318" depart="636.0" route="r_8"/>
    <vehicle id="319" depart="638.0" route="r_4"/>
    <vehicle id="320" depart="640.0" route="r_11"/>
    <vehicle id="321" depart="642.0" route="r_1"/>
    <vehicle id="322" depart="644.0" route="r_10"/>
    <vehicle id="323" depart="646.0" route="r_7"/>
    <vehicle id="324" depart="648.0" route="r_5"/>
    <vehicle id="325" depart="650.0" route="r_8"/>
    <vehicle id="326" depart="652.0" route="r_0"/>
    <vehicle id="327" depart="654.0" route="r_4"/>
    <vehicle id="328" depart="656.0" route="r_7"/>
    <vehicle id="329" depart="658.0" route="r_3"/>
    <vehicle id="330" depart="660.0" route="r_7"/>
    <vehicle id="331" depart="662.0" route="r_10"/>
    <vehicle id="332" depart="664.0" route="r_5"/>
    <vehicle id="333" depart="666.0" route="r_6"/>
    <vehicle id="334" depart="668.0" route="r_1"/>
    <vehicle id="335" depart="670.0" route="r_4"/>
    <vehicle id="336" depart="672.0" route="r_10"/>
    <vehicle id="337" depart="674.0" route="r_7"/>
    <vehicle id="338" depart="676.0" route="r_3"/>
    <vehicle id="339" depart="678.0" route="r_0"/>
    <vehicle id="340" depart="680.0" route="r_7"/>
    <vehicle id="341" depart="682.0" route="r_2"/>
    <vehicle id="342" depart="684.0" route="r_0"/>
    <vehicle id="343" depart="686.0" route="r_4"/>
    <vehicle id="344" depart="688.0" route="r_0"/>
    <vehicle id="345" depart="690.0" route="r_3"/>
    <vehicle id="346" depart="692.0" route="r_8"/>
    <vehicle id="347" depart="694.0" route="r_0"/>
    <vehicle id="348" depart="696.0" route="r_6"/>
    <vehicle id="349" depart="698.0" route="r_11"/>
    <vehicle id="350" depart="700.0" route="r_9"/>
    <vehicle id="351" depart="702.0" route="r_6"/>
    <vehicle id="352" depart="704.0" route="r_7"/>
    <vehicle id="353" depart="706.0" route="r_3"/>
    <vehicle id="354" depart="708.0" route="r_1"/>
    <vehicle id="355" depart="710.0" route="r_8"/>
    <vehicle id="356" depart="712.0" route="r_8"/>
    <vehicle id="357" depart="714.0" route="r_1"/>
    <vehicle id="358" depart="716.0" route="r_0"/>
    <vehicle id="359" depart="718.0" route="r_8"/>
    <vehicle id="360" depart="720.0" route="r_6"/>
    <vehicle id="361" depart="722.0" route="r_11"/>
    <vehicle id="362" depart="724.0" route="r_6"/>
    <vehicle id="363" depart="726.0" route="r_9"/>
    <vehicle id="364" depart="728.0" route="r_5"/>
    <vehicle id="365" depart="730.0" route="r_4"/>
    <vehicle id="366" depart="732.0" route="r_1"/>
    <vehicle id="367" depart="734.0" route="r_0"/>
    <vehicle id="368" depart="736.0" route="r_0"/>
    <vehicle id="369" depart="738.0" route="r_8"/>
    <vehicle id="370" depart="740.0" route="r_11"/>
    <vehicle id="371" depart="742.0" route="r_11"/>
    <vehicle id="372" depart="744.0" route="r_10"/>
    <vehicle id="373" depart="746.0" route="r_9"/>
    <vehicle id="374" depart="748.0" route="r_8"/>
    <vehicle id="375" depart="750.0" route="r_0"/>
    <vehicle id="376" depart="752.0" route="r_9"/>
    <vehicle id="377" depart="754.0" route="r_3"/>
    <vehicle id="378" depart="756.0" route="r_0"/>
    <vehicle id="379" depart="758.0" route="r_2"/>
    <vehicle id="380" depart="760.0" route="r_3"/>
    <vehicle id="381" depart="762.0" route="r_0"/>
    <vehicle id="382" depart="764.0" route="r_0"/>
    <vehicle id="383" depart="766.0" route="r_7"/>
    <vehicle id="384" depart="768.0" route="r_11"/>
    <vehicle id="385" depart="770.0" route="r_11"/>
    <vehicle id="386" depart="772.0" route="r_1"/>
    <vehicle id="387" depart="774.0" route="r_0"/>
    <vehicle id="388" depart="776.0" route="r_7"/>
    <vehicle id="389" depart="778.0" route="r_11"/>
    <vehicle id="390" depart="780.0" route="r_1"/>
    <vehicle id="391" depart="782.0" route="r_10"/>
    <vehicle id="392" depart="784.0" route="r_9"/>
    <vehicle id="393" depart="786.0" route="r_11"/>
    <vehicle id="394" depart="788.0" route="r_0"/>
    <vehicle id="395" depart="790.0" route="r_3"/>
    <vehicle id="396" depart="792.0" route="r_0"/>
    <vehicle id="397" depart="794.0" route="r_8"/>
    <vehicle id="398" depart="796.0" route="r_6"/>
    <vehicle id="399" depart="798.0" route="r_10"/>
    <vehicle id="400" depart="800.0" route="r_4"/>
    <vehicle id="401" depart="802.0" route="r_8"/>
    <vehicle id="402" depart="804.0" route="r_8"/>
    <vehicle id="403" depart="806.0" route="r_0"/>
    <vehicle id="404" depart="808.0" route="r_11"/>
    <vehicle id="405" depart="810.0" route="r_8"/>
    <vehicle id="406" depart="812.0" route="r_5"/>
    <vehicle id="407" depart="814.0" route="r_4"/>
    <vehicle id="408" depart="816.0" route="r_1"/>
    <vehicle id="409" depart="818.0" route="r_11"/>
    <vehicle id="410" depart="820.0" route="r_3"/>
    <vehicle id="411" depart="822.0" route="r_1"/>
    <vehicle id="412" depart="824.0" route="r_7"/>
    <vehicle id="413" depart="826.0" route="r_11"/>
    <vehicle id="414" depart="828.0" route="r_10"/>
    <vehicle id="415" depart="830.0" route="r_9"/>
    <vehicle id="416" depart="832.0" route="r_2"/>
    <vehicle id="417" depart="834.0" route="r_11"/>
    <vehicle id="418" depart="836.0" route="r_7"/>
    <vehicle id="419" depart="838.0" route="r_7"/>
    <vehicle id="420" depart="840.0" route="r_7"/>
    <vehicle id="421" depart="842.0" route="r_7"/>
    <vehicle id="422" depart="844.0" route="r_10"/>
    <vehicle id="423" depart="846.0" route="r_7"/>
    <vehicle id="424" depart="848.0" route="r_9"/>
    <vehicle id="425" depart="850.0" route="r_9"/>
    <vehicle id="426" depart="852.0" route="r_5"/>
    <vehicle id="427" depart="854.0" route="r_1"/>
    <vehicle id="428" depart="856.0" route="r_4"/>
    <vehicle id="429" depart="858.0" route="r_0"/>
    <vehicle id="430" depart="860.0" route="r_2"/>
    <vehicle id="431" depart="862.0" route="r_5"/>
    <vehicle id="432" depart="864.0" route="r_8"/>
    <vehicle id="433" depart="866.0" route="r_9"/>
    <vehicle id="434" depart="868.0" route="r_5"/>
    <vehicle id="435" depart="870.0" route="r_3"/>
    <vehicle id="436" depart="872.0" route="r_9"/>
    <vehicle id="437" depart="874.0" route="r_4"/>
    <vehicle id="438" depart="876.0" route="r_6"/>
    <vehicle id="439" depart="878.0" route="r_6"/>
    <vehicle id="440" depart="880.0" route="r_0"/>
    <vehicle id="441" depart="882.0" route="r_7"/>
    <vehicle id="442" depart="884.0" route="r_3"/>
    <vehicle id="443" depart="886.0" route="r_5"/>
    <vehicle id="444" depart="888.0" route="r_11"/>
    <vehicle id="445" depart="890.0" route="r_3"/>
    <vehicle id="446" depart="892.0" route="r_5"/>
    <vehicle id="447" depart="894.0" route="r_4"/>
    <vehicle id="448" depart="896.0" route="r_1"/>
    <vehicle id="449" depart="898.0" route="r_1"/>
    <vehicle id="450" depart="900.0" route="r_8"/>
    <vehicle id="451" depart="902.0" route="r_7"/>
    <vehicle id="452" depart="904.0" route="r_4"/>
    <vehicle id="453" depart="906.0" route="r_4"/>
    <vehicle id="454" depart="908.0" route="r_7"/>
    <vehicle id="455" depart="910.0" route="r_6"/>
    <vehicle id="456" depart="912.0" route="r_9"/>
    <vehicle id="457" depart="914.0" route="r_8"/>
    <vehicle id="458" depart="916.0" route="r_3"/>
    <vehicle id="459" depart="918.0" route="r_0"/>
    <vehicle id="460" depart="920.0" route="r_0"/>
    <vehicle id="461" depart="922.0" route="r_7"/>
    <vehicle id="462" depart="924.0" route="r_10"/>
    <vehicle id="463" depart="926.0" route="r_6"/>
    <vehicle id="464" depart="928.0" route="r_6"/>
    <vehicle id="465" depart="930.0" route="r_6"/>
    <vehicle id="466" depart="932.0" route="r_6"/>
    <vehicle id="467" depart="934.0" route="r_10"/>
    <vehicle id="468" depart="936.0" route="r_10"/>
    <vehicle id="469" depart="938.0" route="r_2"/>
    <vehicle id="470" depart="940.0" route="r_2"/>
    <vehicle id="471" depart="942.0" route="r_5"/>
    <vehicle id="472" depart="944.0" route="r_7"/>
    <vehicle id="473" depart="946.0" route="r_2"/>
    <vehicle id="474" depart="948.0" route="r_7"/>
    <vehicle id="475" depart="950.0" route="r_10"/>
    <vehicle id="476" depart="952.0" route="r_3"/>
    <vehicle id="477" depart="954.0" route="r_8"/>
    <vehicle id="478" depart="956.0" route="r_4"/>
    <vehicle id="479" depart="958.0" route="r_2"/>
    <vehicle id="480" depart="960.0" route="r_4"/>
    <vehicle id="481" depart="962.0" route="r_4"/>
    <vehicle id="482" depart="964.0" route="r_9"/>
    <vehicle id="483" depart="966.0" route="r_0"/>
    <vehicle id="484" depart="968.0" route="r_7"/>
    <vehicle id="485" depart="970.0" route="r_8"/>
    <vehicle id="486" depart="972.0" route="r_6"/>
    <vehicle id="487" depart="974.0" route="r_5"/>
    <vehicle id="488" depart="976.0" route="r_1"/>
    <vehicle id="489" depart="978.0" route="r_7"/>
    <vehicle id="490" depart="980.0" route="r_10"/>
    <vehicle id="491" depart="982.0" route="r_5"/>
    <vehicle id="492" depart="984.0" route="r_6"/>
    <vehicle id="493" depart="986.0" route="r_4"/>
    <vehicle id="494" depart="988.0" route="r_11"/>
    <vehicle id="495" depart="990.0" route="r_8"/>
    <vehicle id="496" depart="992.0" route="r_1"/>
    <vehicle id="497" depart="994.0" route="r_9"/>
    <vehicle id="498" depart="996.0" route="r_11"/>
    <vehicle id="499" depart="998.0" route="r_2"/>
    <vehicle id="500" depart="1000.0" route="r_9"/>
    <vehicle id="501" depart="1002.0" route="r_8"/>
    <vehicle id="502" depart="1004.0" route="r_1"/>
    <vehicle id="503" depart="1006.0" route="r_8"/>
    <vehicle id="504" depart="1008.0" route="r_5"/>
    <vehicle id="505" depart="1010.0" route="r_1"/>
    <vehicle id="506" depart="1012.0" route="r_2"/>
    <vehicle id="507" depart="1014.0" route="r_6"/>
    <vehicle id="508" depart="1016.0" route="r_0"/>
    <vehicle id="509" depart="1018.0" route="r_4"/>
    <vehicle id="510" depart="1020.0" route="r_9"/>
    <vehicle id="511" depart="1022.0" route="r_3"/>
    <vehicle id="512" depart="1024.0" route="r_10"/>
    <vehicle id="513" depart="1026.0" route="r_5"/>
    <vehicle id="514" depart="1028.0" route="r_2"/>
    <vehicle id="515" depart="1030.0" route="r_5"/>
    <vehicle id="516" depart="1032.0" route="r_4"/>
    <vehicle id="517" depart="1034.0" route="r_11"/>
    <vehicle id="518" depart="1036.0" route="r_7"/>
    <vehicle id="519" depart="1038.0" route="r_10"/>
    <vehicle id="520" depart="1040.0" route="r_10"/>
    <vehicle id="521" depart="1042.0" route="r_9"/>
    <vehicle id="522" depart="1044.0" route="r_9"/>
    <vehicle id="523" depart="1046.0" route="r_2"/>
    <vehicle id="524" depart="1048.0" route="r_11"/>
    <vehicle id="525" depart="1050.0" route="r_5"/>
    <vehicle id="526" depart="1052.0" route="r_6"/>
    <vehicle id="527" depart="1054.0" route="r_8"/>
    <vehicle id="528" depart="1056.0" route="r_1"/>
    <vehicle id="529" depart="1058.0" route="r_6"/>
    <vehicle id="530" depart="1060.0" route="r_7"/>
    <vehicle id="531" depart="1062.0" route="r_0"/>
    <vehicle id="532" depart="1064.0" route="r_11"/>
    <vehicle id="533" depart="1066.0" route="r_7"/>
    <vehicle id="534" depart="1068.0" route="r_10"/>
    <vehicle id="535" depart="1070.0" route="r_7"/>
    <vehicle id="536" depart="1072.0" route="r_8"/>
    <vehicle id="537" depart="1074.0" route="r_0"/>
    <vehicle id="538" depart="1076.0" route="r_0"/>
    <vehicle id="539" depart="1078.0" route="r_10"/>
    <vehicle id="540" depart="1080.0" route="r_8"/>
    <vehicle id="541" depart="1082.0" route="r_2"/>
    <vehicle id="542" depart="1084.0" route="r_0"/>
    <vehicle id="543" depart="1086.0" route="r_10"/>
    <vehicle id="544" depart="1088.0" route="r_11"/>
    <vehicle id="545" depart="1090.0" route="r_6"/>
    <vehicle id="546" depart="1092.0" route="r_3"/>
    <vehicle id="547" depart="1094.0" route="r_2"/>
    <vehicle id="548" depart="1096.0" route="r_11"/>
    <vehicle id="549" depart="1098.0" route="r_3"/>
    <vehicle id="550" depart="1100.0" route="r_7"/>
    <vehicle id="551" depart="1102.0" route="r_7"/>
    <vehicle id="552" depart="1104.0" route="r_8"/>
    <vehicle id="553" depart="1106.0" route="r_5"/>
    <vehicle id="554" depart="1108.0" route="r_5"/>
    <vehicle id="555" depart="1110.0" route="r_3"/>
    <vehicle id="556" depart="1112.0" route="r_6"/>
    <vehicle id="557" depart="1114.0" route="r_5"/>
    <vehicle id="558" depart="1116.0" route="r_11"/>
    <vehicle id="559" depart="1118.0" route="r_7"/>
    <vehicle id="560" depart="1120.0" route="r_6"/>
    <vehicle id="561" depart="1122.0" route="r_2"/>
    <vehicle id="562" depart="1124.0" route="r_11"/>
    <vehicle id="563" depart="1126.0" route="r_0"/>
    <vehicle id="564" depart="1128.0" route="r_4"/>
    <vehicle id="565" depart="1130.0" route="r_3"/>
    <vehicle id="566" depart="1132.0" route="r_7"/>
    <vehicle id="567" depart="1134.0" route="r_9"/>
    <vehicle id="568" depart="1136.0" route="r_6"/>
    <vehicle id="569" depart="1138.0" route="r_10"/>
    <vehicle id="570" depart="1140.0" route="r_10"/>
    <vehicle id="571" depart="1142.0" route="r_0"/>
    <vehicle id="572" depart="1144.0" route="r_9"/>
    <vehicle id="573" depart="1146.0" route="r_0"/>
    <vehicle id="574" depart="1148.0" route="r_11"/>
    <vehicle id="575" depart="1150.0" route="r_5"/>
    <vehicle id="576" depart="1152.0" route="r_11"/>
    <vehicle id="577" depart="1154.0" route="r_5"/>