<?xml version="1.0" encoding="UTF-8"?>

<!-- generated on 2023-11-30 14:13:20 by Eclipse SUMO netedit Version 1.18.0
<configuration xmlns:xsi="http://www.w3.org/2001/XMLSchema-instance" xsi:noNamespaceSchemaLocation="http://sumo.dlr.de/xsd/neteditConfiguration.xsd">

    <input>
        <sumo-net-file value=".\Town06.net.xml"/>
    </input>

    <output>
        <output-file value=".\Town06.net.xml"/>
    </output>

    <processing>
        <geometry.min-radius.fix.railways value="false"/>
        <geometry.max-grade.fix value="false"/>
        <offset.disable-normalization value="true"/>
        <lefthand value="0"/>
    </processing>

    <junctions>
        <no-turnarounds value="true"/>
        <junctions.corner-detail value="5"/>
        <junctions.limit-turn-speed value="5.50"/>
        <rectangular-lane-cut value="1"/>
    </junctions>

    <pedestrian>
        <walkingareas value="0"/>
    </pedestrian>

</configuration>
-->

<net version="1.16" junctionCornerDetail="5" rectangularLaneCut="true" limitTurnSpeed="5.50" xmlns:xsi="http://www.w3.org/2001/XMLSchema-instance" xsi:noNamespaceSchemaLocation="http://sumo.dlr.de/xsd/net_file.xsd">

    <location netOffset="357.36,403.33" convBoundary="0.00,0.00,1013.80,545.84" origBoundary="0.000000,0.000000,0.000000,0.000000" projParameter="+proj=tmerc +lat_0=0 +lon_0=0 +k=1 +x_0=0 +y_0=0 +datum=WGS84 +units=m  +vunits=m +no_defs "/>

    <edge id=":1034_0" function="internal">
        <lane id=":1034_0_0" index="0" disallow="all" speed="1.39" length="44.66" width="0.63" shape="809.90,248.99 854.56,248.81">
            <param key="origId" value="1037_-9"/>
        </lane>
        <lane id=":1034_0_1" index="1" disallow="all" speed="1.39" length="44.66" width="0.50" shape="809.90,249.55 854.56,249.37">
            <param key="origId" value="1037_-8"/>
        </lane>
        <lane id=":1034_0_2" index="2" disallow="pedestrian tram rail_urban rail rail_electric rail_fast ship" speed="13.89" length="44.66" width="3.50" shape="809.91,251.55 854.57,251.37">
            <param key="origId" value="1037_-7"/>
        </lane>
        <lane id=":1034_0_3" index="3" disallow="pedestrian tram rail_urban rail rail_electric rail_fast ship" speed="13.89" length="44.66" width="3.50" shape="809.93,255.05 854.59,254.87">
            <param key="origId" value="1037_-6"/>
        </lane>
        <lane id=":1034_0_4" index="4" disallow="pedestrian tram rail_urban rail rail_electric rail_fast ship" speed="13.89" length="44.66" width="3.50" shape="809.94,258.55 854.60,258.37">
            <param key="origId" value="1037_-5"/>
        </lane>
        <lane id=":1034_0_5" index="5" disallow="pedestrian tram rail_urban rail rail_electric rail_fast ship" speed="13.89" length="44.66" width="3.50" shape="809.95,262.05 854.61,261.87">
            <param key="origId" value="1037_-4"/>
        </lane>
        <lane id=":1034_0_6" index="6" disallow="pedestrian tram rail_urban rail rail_electric rail_fast ship" speed="13.89" length="44.66" width="3.50" shape="809.97,265.55 854.63,265.37">
            <param key="origId" value="1037_-3"/>
        </lane>
    </edge>
    <edge id=":1034_7" function="internal">
        <lane id=":1034_7_0" index="0" disallow="pedestrian tram rail_urban rail rail_electric rail_fast ship" speed="13.89" length="42.71" width="3.50" shape="809.97,265.55 821.94,266.37 832.48,268.95 841.58,273.27 849.25,279.34">
            <param key="origId" value="1043_-3"/>
        </lane>
    </edge>
    <edge id=":1034_8" function="internal">
        <lane id=":1034_8_0" index="0" disallow="all" speed="1.39" length="44.66" width="0.50" shape="809.98,267.55 854.64,267.37">
            <param key="origId" value="1037_-2"/>
        </lane>
    </edge>
    <edge id=":1034_9" function="internal">
        <lane id=":1034_9_0" index="0" disallow="all" speed="1.39" length="41.13" width="0.50" shape="809.98,267.55 821.55,268.34 831.71,270.80 840.48,274.94 847.83,280.76">
            <param key="origId" value="1043_-2"/>
        </lane>
        <lane id=":1034_9_1" index="1" disallow="all" speed="1.39" length="40.68" width="0.63" shape="809.98,268.12 821.44,268.89 831.50,271.33 840.16,275.41 847.43,281.16">
            <param key="origId" value="1043_-1"/>
        </lane>
    </edge>
    <edge id=":1050_0" function="internal">
        <lane id=":1050_0_0" index="0" disallow="all" speed="1.39" length="30.03" width="0.63" shape="882.29,336.51 887.03,341.78 892.98,345.55 900.14,347.81 908.50,348.57">
            <param key="origId" value="1124_5"/>
        </lane>
        <lane id=":1050_0_1" index="1" disallow="all" speed="1.39" length="30.58" width="0.50" shape="881.82,336.83 886.66,342.21 892.72,346.05 900.00,348.36 908.50,349.13">
            <param key="origId" value="1124_4"/>
        </lane>
        <lane id=":1050_0_2" index="2" disallow="pedestrian tram rail_urban rail rail_electric rail_fast ship" speed="13.89" length="32.52" width="3.50" shape="880.17,337.96 885.33,343.72 891.78,347.83 899.50,350.30 908.50,351.13">
            <param key="origId" value="1124_3"/>
        </lane>
    </edge>
    <edge id=":1050_3" function="internal">
        <lane id=":1050_3_0" index="0" disallow="all" speed="1.39" length="70.79" width="0.50" shape="837.70,349.08 908.50,349.13">
            <param key="origId" value="1083_-8"/>
        </lane>
        <lane id=":1050_3_1" index="1" disallow="pedestrian tram rail_urban rail rail_electric rail_fast ship" speed="13.89" length="70.79" width="3.50" shape="837.70,351.08 908.50,351.13">
            <param key="origId" value="1083_-7"/>
        </lane>
        <lane id=":1050_3_2" index="2" disallow="pedestrian tram rail_urban rail rail_electric rail_fast ship" speed="13.89" length="70.79" width="3.50" shape="837.70,354.58 908.50,354.63">
            <param key="origId" value="1083_-6"/>
        </lane>
        <lane id=":1050_3_3" index="3" disallow="pedestrian tram rail_urban rail rail_electric rail_fast ship" speed="13.89" length="70.79" width="3.50" shape="837.70,358.08 908.49,358.13">
            <param key="origId" value="1083_-5"/>
        </lane>
        <lane id=":1050_3_4" index="4" disallow="pedestrian tram rail_urban rail rail_electric rail_fast ship" speed="13.89" length="70.79" width="3.50" shape="837.70,361.58 908.49,361.63">
            <param key="origId" value="1083_-4"/>
        </lane>
        <lane id=":1050_3_5" index="5" disallow="pedestrian tram rail_urban rail rail_electric rail_fast ship" speed="13.89" length="70.79" width="3.50" shape="837.70,365.08 908.49,365.13">
            <param key="origId" value="1083_-3"/>
        </lane>
    </edge>
    <edge id=":1050_9" function="internal">
        <lane id=":1050_9_0" index="0" disallow="pedestrian tram rail_urban rail rail_electric rail_fast ship" speed="13.89" length="37.62" width="3.50" shape="837.70,365.08 847.87,365.94 856.89,368.54 864.76,372.85 871.50,378.90">
            <param key="origId" value="1051_-1"/>
        </lane>
    </edge>
    <edge id=":1050_10" function="internal">
        <lane id=":1050_10_0" index="0" disallow="all" speed="1.39" length="70.79" width="0.50" shape="837.70,367.08 908.49,367.13">
            <param key="origId" value="1083_-2"/>
        </lane>
    </edge>
    <edge id=":1050_11" function="internal">
        <lane id=":1050_11_0" index="0" disallow="all" speed="1.39" length="35.46" width="0.63" shape="837.70,367.65 847.31,368.46 855.83,370.89 863.25,374.94 869.58,380.61">
            <param key="origId" value="1052_-1"/>
        </lane>
    </edge>
    <edge id=":1128_0" function="internal">
        <lane id=":1128_0_0" index="0" disallow="all" speed="1.39" length="42.14" width="0.63" shape="274.62,270.44 232.47,270.55">
            <param key="origId" value="1129_7"/>
        </lane>
        <lane id=":1128_0_1" index="1" disallow="all" speed="1.39" length="42.14" width="0.50" shape="274.62,269.88 232.47,269.98">
            <param key="origId" value="1129_6"/>
        </lane>
        <lane id=":1128_0_2" index="2" disallow="pedestrian tram rail_urban rail rail_electric rail_fast ship" speed="13.89" length="42.14" width="3.50" shape="274.61,267.88 232.47,267.98">
            <param key="origId" value="1129_5"/>
        </lane>
        <lane id=":1128_0_3" index="3" disallow="pedestrian tram rail_urban rail rail_electric rail_fast ship" speed="13.89" length="42.14" width="3.50" shape="274.61,264.38 232.47,264.48">
            <param key="origId" value="1129_4"/>
        </lane>
        <lane id=":1128_0_4" index="4" disallow="pedestrian tram rail_urban rail rail_electric rail_fast ship" speed="13.89" length="42.14" width="3.50" shape="274.60,260.88 232.47,260.98">
            <param key="origId" value="1129_3"/>
        </lane>
        <lane id=":1128_0_5" index="5" disallow="pedestrian tram rail_urban rail rail_electric rail_fast ship" speed="13.89" length="42.14" width="3.50" shape="274.59,257.38 232.47,257.48">
            <param key="origId" value="1129_2"/>
        </lane>
    </edge>
    <edge id=":1128_6" function="internal">
        <lane id=":1128_6_0" index="0" disallow="pedestrian tram rail_urban rail rail_electric rail_fast ship" speed="13.89" length="39.15" width="3.50" shape="269.73,243.14 260.35,250.08 252.79,253.22 244.38,254.03 232.47,253.98">
            <param key="origId" value="1139_3"/>
        </lane>
        <lane id=":1128_6_1" index="1" disallow="all" speed="1.39" length="39.15" width="0.50" shape="268.45,241.61 259.40,248.28 252.09,251.29 243.97,252.05 232.47,251.98">
            <param key="origId" value="1139_2"/>
        </lane>
        <lane id=":1128_6_2" index="2" disallow="all" speed="1.39" length="39.15" width="0.63" shape="268.09,241.17 259.13,247.78 251.89,250.74 243.85,251.48 232.47,251.41">
            <param key="origId" value="1139_1"/>
        </lane>
    </edge>
    <edge id=":1146_0" function="internal">
        <lane id=":1146_0_0" index="0" disallow="all" speed="1.39" length="69.20" width="0.63" shape="544.33,236.12 558.94,243.73 572.74,247.86 588.86,249.54 610.41,249.81">
            <param key="origId" value="1159_5"/>
        </lane>
        <lane id=":1146_0_1" index="1" disallow="all" speed="1.39" length="69.20" width="0.50" shape="544.04,236.61 558.67,244.23 572.54,248.39 588.75,250.10 610.41,250.37">
            <param key="origId" value="1159_4"/>
        </lane>
        <lane id=":1146_0_2" index="2" disallow="pedestrian tram rail_urban rail rail_electric rail_fast ship" speed="13.89" length="69.20" width="3.50" shape="543.01,238.32 557.72,245.99 571.82,250.25 588.37,252.05 610.42,252.37">
            <param key="origId" value="1159_3"/>
        </lane>
    </edge>
    <edge id=":1146_3" function="internal">
        <lane id=":1146_3_0" index="0" disallow="all" speed="1.39" length="71.30" width="0.50" shape="539.11,250.66 610.41,250.37">
            <param key="origId" value="1149_-8"/>
        </lane>
        <lane id=":1146_3_1" index="1" disallow="pedestrian tram rail_urban rail rail_electric rail_fast ship" speed="13.89" length="71.30" width="3.50" shape="539.12,252.66 610.42,252.37">
            <param key="origId" value="1149_-7"/>
        </lane>
        <lane id=":1146_3_2" index="2" disallow="pedestrian tram rail_urban rail rail_electric rail_fast ship" speed="13.89" length="71.30" width="3.50" shape="539.14,256.16 610.44,255.87">
            <param key="origId" value="1149_-6"/>
        </lane>
        <lane id=":1146_3_3" index="3" disallow="pedestrian tram rail_urban rail rail_electric rail_fast ship" speed="13.89" length="71.30" width="3.50" shape="539.15,259.66 610.45,259.37">
            <param key="origId" value="1149_-5"/>
        </lane>
        <lane id=":1146_3_4" index="4" disallow="pedestrian tram rail_urban rail rail_electric rail_fast ship" speed="13.89" length="71.30" width="3.50" shape="539.16,263.16 610.46,262.87">
            <param key="origId" value="1149_-4"/>
        </lane>
        <lane id=":1146_3_5" index="5" disallow="pedestrian tram rail_urban rail rail_electric rail_fast ship" speed="13.89" length="71.30" width="3.50" shape="539.18,266.66 610.48,266.37">
            <param key="origId" value="1149_-3"/>
        </lane>
        <lane id=":1146_3_6" index="6" disallow="all" speed="1.39" length="71.30" width="0.50" shape="539.19,268.66 610.49,268.37">
            <param key="origId" value="1149_-2"/>
        </lane>
        <lane id=":1146_3_7" index="7" disallow="all" speed="1.39" length="71.30" width="0.63" shape="539.19,269.23 610.49,268.94">
            <param key="origId" value="1149_-1"/>
        </lane>
    </edge>
    <edge id=":1162_0" function="internal">
        <lane id=":1162_0_0" index="0" disallow="all" speed="1.39" length="29.29" width="0.63" shape="511.77,429.38 482.44,429.28">
            <param key="origId" value="1164_-8"/>
        </lane>
        <lane id=":1162_0_1" index="1" disallow="all" speed="1.39" length="29.29" width="0.50" shape="511.77,428.82 482.45,428.72">
            <param key="origId" value="1164_-7"/>
        </lane>
        <lane id=":1162_0_2" index="2" disallow="pedestrian tram rail_urban rail rail_electric rail_fast ship" speed="13.89" length="29.29" width="3.50" shape="511.78,426.82 482.47,426.72">
            <param key="origId" value="1164_-6"/>
            <param key="signalID" value="1238"/>
        </lane>
        <lane id=":1162_0_3" index="3" disallow="pedestrian tram rail_urban rail rail_electric rail_fast ship" speed="13.89" length="29.29" width="3.50" shape="511.79,423.32 482.50,423.22">
            <param key="origId" value="1164_-5"/>
            <param key="signalID" value="1238"/>
        </lane>
        <lane id=":1162_0_4" index="4" disallow="pedestrian tram rail_urban rail rail_electric rail_fast ship" speed="13.89" length="29.29" width="3.50" shape="511.81,419.82 482.54,419.72">
            <param key="origId" value="1164_-4"/>
            <param key="signalID" value="1238"/>
        </lane>
        <lane id=":1162_0_5" index="5" disallow="pedestrian tram rail_urban rail rail_electric rail_fast ship" speed="13.89" length="29.29" width="3.50" shape="511.82,416.32 482.57,416.22">
            <param key="origId" value="1164_-3"/>
            <param key="signalID" value="1238"/>
        </lane>
        <lane id=":1162_0_6" index="6" disallow="all" speed="1.39" length="29.29" width="0.50" shape="511.83,414.32 482.59,414.22">
            <param key="origId" value="1164_-2"/>
        </lane>
    </edge>
    <edge id=":1162_7" function="internal">
        <lane id=":1162_7_0" index="0" disallow="pedestrian tram rail_urban rail rail_electric rail_fast ship" speed="13.31" length="36.07" width="3.50" shape="502.07,399.92 499.13,411.70 494.88,420.10 489.32,425.10 482.47,426.72">
            <param key="origId" value="1175_1"/>
            <param key="signalID" value="1239"/>
        </lane>
        <lane id=":1162_7_1" index="1" disallow="pedestrian tram rail_urban rail rail_electric rail_fast ship" speed="12.81" length="33.32" width="3.50" shape="502.07,399.92 499.35,410.17 495.18,417.47 489.57,421.82 482.50,423.22">
            <param key="origId" value="1176_1"/>
            <param key="signalID" value="1239"/>
        </lane>
        <lane id=":1162_7_2" index="2" disallow="pedestrian tram rail_urban rail rail_electric rail_fast ship" speed="12.30" length="30.65" width="3.50" shape="502.07,399.92 499.58,408.64 495.49,414.85 489.81,418.54 482.54,419.72">
            <param key="origId" value="1180_4"/>
            <param key="signalID" value="1239"/>
        </lane>
        <lane id=":1162_7_3" index="3" disallow="pedestrian tram rail_urban rail rail_electric rail_fast ship" speed="11.29" length="25.64" width="3.50" shape="498.62,399.33 496.53,406.77 493.16,412.06 488.51,415.21 482.57,416.22">
            <param key="origId" value="1180_3"/>
            <param key="signalID" value="1239"/>
        </lane>
        <lane id=":1162_7_4" index="4" disallow="all" speed="1.39" length="22.78" width="0.50" shape="496.65,399.00 494.79,405.70 491.83,410.47 487.76,413.31 482.59,414.22">
            <param key="origId" value="1180_2"/>
        </lane>
        <lane id=":1162_7_5" index="5" disallow="all" speed="1.39" length="21.97" width="0.63" shape="496.09,398.90 494.30,405.40 491.45,410.02 487.55,412.77 482.60,413.65">
            <param key="origId" value="1180_1"/>
            <param key="signalID" value="1239 1239"/>
        </lane>
    </edge>
    <edge id=":1187_0" function="internal">
        <lane id=":1187_0_0" index="0" disallow="all" speed="1.39" length="55.65" width="0.63" shape="430.22,149.22 485.88,149.19">
            <param key="origId" value="1190_-9"/>
        </lane>
        <lane id=":1187_0_1" index="1" disallow="all" speed="1.39" length="55.65" width="0.50" shape="430.22,149.78 485.88,149.76">
            <param key="origId" value="1190_-8"/>
        </lane>
        <lane id=":1187_0_2" index="2" disallow="pedestrian tram rail_urban rail rail_electric rail_fast ship" speed="13.89" length="55.65" width="3.50" shape="430.22,151.78 485.88,151.76">
            <param key="origId" value="1190_-7"/>
        </lane>
        <lane id=":1187_0_3" index="3" disallow="pedestrian tram rail_urban rail rail_electric rail_fast ship" speed="13.89" length="55.65" width="3.50" shape="430.22,155.28 485.88,155.26">
            <param key="origId" value="1190_-6"/>
        </lane>
        <lane id=":1187_0_4" index="4" disallow="pedestrian tram rail_urban rail rail_electric rail_fast ship" speed="13.89" length="55.65" width="3.50" shape="430.23,158.78 485.88,158.76">
            <param key="origId" value="1190_-5"/>
        </lane>
        <lane id=":1187_0_5" index="5" disallow="pedestrian tram rail_urban rail rail_electric rail_fast ship" speed="13.89" length="55.65" width="3.50" shape="430.23,162.28 485.88,162.26">
            <param key="origId" value="1190_-4"/>
        </lane>
        <lane id=":1187_0_6" index="6" disallow="pedestrian tram rail_urban rail rail_electric rail_fast ship" speed="13.89" length="55.65" width="3.50" shape="430.23,165.78 485.88,165.76">
            <param key="origId" value="1190_-3"/>
        </lane>
    </edge>
    <edge id=":1187_7" function="internal">
        <lane id=":1187_7_0" index="0" disallow="pedestrian tram rail_urban rail rail_electric rail_fast ship" speed="13.89" length="54.49" width="3.50" shape="430.23,165.78 446.54,165.94 458.10,167.40 468.50,171.58 481.35,179.91">
            <param key="origId" value="1196_-3"/>
        </lane>
    </edge>
    <edge id=":1187_8" function="internal">
        <lane id=":1187_8_0" index="0" disallow="all" speed="1.39" length="55.65" width="0.50" shape="430.23,167.78 485.88,167.76">
            <param key="origId" value="1190_-2"/>
        </lane>
    </edge>
    <edge id=":1187_9" function="internal">
        <lane id=":1187_9_0" index="0" disallow="all" speed="1.39" length="53.27" width="0.50" shape="430.23,167.78 446.10,167.89 457.29,169.22 467.44,173.27 480.19,181.54">
            <param key="origId" value="1196_-2"/>
        </lane>
        <lane id=":1187_9_1" index="1" disallow="all" speed="1.39" length="52.92" width="0.63" shape="430.23,168.35 445.98,168.43 457.06,169.73 467.14,173.75 479.86,182.00">
            <param key="origId" value="1196_-1"/>
        </lane>
    </edge>
    <edge id=":1203_0" function="internal">
        <lane id=":1203_0_0" index="0" disallow="all" speed="1.39" length="35.78" width="0.63" shape="884.96,430.27 849.18,430.35">
            <param key="origId" value="1206_-9"/>
        </lane>
        <lane id=":1203_0_1" index="1" disallow="all" speed="1.39" length="35.78" width="0.50" shape="884.96,429.71 849.18,429.79">
            <param key="origId" value="1206_-8"/>
        </lane>
        <lane id=":1203_0_2" index="2" disallow="pedestrian tram rail_urban rail rail_electric rail_fast ship" speed="13.89" length="35.78" width="3.50" shape="884.95,427.71 849.17,427.79">
            <param key="origId" value="1206_-7"/>
        </lane>
        <lane id=":1203_0_3" index="3" disallow="pedestrian tram rail_urban rail rail_electric rail_fast ship" speed="13.89" length="35.78" width="3.50" shape="884.95,424.21 849.17,424.29">
            <param key="origId" value="1206_-6"/>
        </lane>
        <lane id=":1203_0_4" index="4" disallow="pedestrian tram rail_urban rail rail_electric rail_fast ship" speed="13.89" length="35.78" width="3.50" shape="884.94,420.71 849.16,420.79">
            <param key="origId" value="1206_-5"/>
        </lane>
        <lane id=":1203_0_5" index="5" disallow="pedestrian tram rail_urban rail rail_electric rail_fast ship" speed="13.89" length="35.78" width="3.50" shape="884.93,417.21 849.15,417.29">
            <param key="origId" value="1206_-4"/>
        </lane>
        <lane id=":1203_0_6" index="6" disallow="pedestrian tram rail_urban rail rail_electric rail_fast ship" speed="13.89" length="35.78" width="3.50" shape="884.93,413.71 849.15,413.79">
            <param key="origId" value="1206_-3"/>
        </lane>
        <lane id=":1203_0_7" index="7" disallow="all" speed="1.39" length="35.78" width="0.50" shape="884.92,411.71 849.14,411.79">
            <param key="origId" value="1206_-2"/>
        </lane>
    </edge>
    <edge id=":1203_8" function="internal">
        <lane id=":1203_8_0" index="0" disallow="pedestrian tram rail_urban rail rail_electric rail_fast ship" speed="13.88" length="32.81" width="3.50" shape="876.24,402.80 872.59,409.12 866.86,413.64 859.05,416.37 849.15,417.29">
            <param key="origId" value="1216_1"/>
        </lane>
        <lane id=":1203_8_1" index="1" disallow="pedestrian tram rail_urban rail rail_electric rail_fast ship" speed="13.49" length="30.92" width="3.50" shape="876.24,402.80 873.06,407.59 867.49,411.02 859.52,413.09 849.15,413.79">
            <param key="origId" value="1218_3"/>
        </lane>
        <lane id=":1203_8_2" index="2" disallow="all" speed="1.39" length="28.50" width="0.50" shape="874.36,402.12 871.48,406.33 866.31,409.35 858.87,411.17 849.14,411.79">
            <param key="origId" value="1218_2"/>
        </lane>
        <lane id=":1203_8_3" index="3" disallow="all" speed="1.39" length="27.81" width="0.63" shape="873.83,401.93 871.03,405.98 865.98,408.88 858.69,410.63 849.14,411.22">
            <param key="origId" value="1218_1"/>
        </lane>
    </edge>
    <edge id=":15#1_0" function="internal">
        <lane id=":15#1_0_0" index="0" disallow="all" speed="1.39" length="3.61" width="0.63" shape="400.92,348.39 404.34,346.40"/>
        <lane id=":15#1_0_1" index="1" disallow="all" speed="1.39" length="3.61" width="0.50" shape="400.83,348.95 404.24,346.96"/>
        <lane id=":15#1_0_2" index="2" disallow="pedestrian tram rail_urban rail rail_electric rail_fast ship" speed="13.89" length="3.61" width="3.50" shape="400.51,350.92 403.91,348.93"/>
        <lane id=":15#1_0_3" index="3" disallow="pedestrian tram rail_urban rail rail_electric rail_fast ship" speed="13.89" length="3.61" width="3.50" shape="399.96,354.38 403.32,352.38"/>
        <lane id=":15#1_0_4" index="4" disallow="pedestrian tram rail_urban rail rail_electric rail_fast ship" speed="13.89" length="3.61" width="3.50" shape="399.40,357.84 402.74,355.83"/>
        <lane id=":15#1_0_5" index="5" disallow="pedestrian tram rail_urban rail rail_electric rail_fast ship" speed="13.89" length="3.61" width="3.50" shape="398.85,361.29 402.15,359.28"/>
        <lane id=":15#1_0_6" index="6" allow="emergency authority" speed="13.89" length="3.61" width="4.18" shape="398.44,363.84 399.36,363.79 399.98,363.45 400.59,363.11 401.50,363.07"/>
        <lane id=":15#1_0_7" index="7" disallow="all" speed="1.39" length="3.61" width="0.50" shape="398.27,364.91 401.11,365.38"/>
        <lane id=":15#1_0_8" index="8" disallow="all" speed="1.39" length="3.61" width="0.63" shape="398.18,365.46 401.02,365.93"/>
    </edge>
    <edge id=":15.14_0" function="internal">
        <lane id=":15.14_0_0" index="0" disallow="all" speed="1.39" length="8.56" width="0.63" shape="379.66,348.39 382.32,348.12 384.12,347.55 385.91,347.02 388.57,346.90"/>
        <lane id=":15.14_0_1" index="1" disallow="all" speed="1.39" length="8.56" width="0.50" shape="379.66,348.96 382.31,348.69 384.10,348.11 385.89,347.59 388.54,347.47"/>
        <lane id=":15.14_0_2" index="2" disallow="pedestrian tram rail_urban rail rail_electric rail_fast ship" speed="13.89" length="8.56" width="3.50" shape="379.66,350.96 382.28,350.69 384.04,350.11 385.80,349.58 388.42,349.46"/>
        <lane id=":15.14_0_3" index="3" disallow="pedestrian tram rail_urban rail rail_electric rail_fast ship" speed="13.89" length="8.56" width="3.50" shape="379.65,354.46 382.21,354.19 383.93,353.61 385.65,353.08 388.20,352.96"/>
        <lane id=":15.14_0_4" index="4" disallow="pedestrian tram rail_urban rail rail_electric rail_fast ship" speed="13.89" length="8.56" width="3.50" shape="379.65,357.96 382.15,357.69 383.82,357.11 385.50,356.58 387.99,356.45"/>
        <lane id=":15.14_0_5" index="5" disallow="pedestrian tram rail_urban rail rail_electric rail_fast ship" speed="13.89" length="8.56" width="3.50" shape="379.65,361.46 382.08,361.18 383.72,360.59 385.35,360.06 387.78,359.94"/>
        <lane id=":15.14_0_6" index="6" disallow="all" speed="1.39" length="8.56" width="0.50" shape="379.64,363.46 387.56,363.60"/>
        <lane id=":15.14_0_7" index="7" disallow="all" speed="1.39" length="8.56" width="0.63" shape="379.64,364.02 387.53,364.16"/>
    </edge>
    <edge id=":22#1_0" function="internal">
        <lane id=":22#1_0_0" index="0" disallow="all" speed="1.39" length="3.38" width="0.63" shape="309.70,270.46 308.72,270.64 308.13,271.18 307.53,271.71 306.56,271.90"/>
        <lane id=":22#1_0_1" index="1" disallow="all" speed="1.39" length="3.38" width="0.50" shape="309.74,269.90 308.77,270.08 308.17,270.62 307.58,271.15 306.61,271.33"/>
        <lane id=":22#1_0_2" index="2" disallow="pedestrian tram rail_urban rail rail_electric rail_fast ship" speed="13.89" length="3.38" width="3.50" shape="309.92,267.91 308.94,268.09 308.35,268.62 307.75,269.16 306.78,269.34"/>
        <lane id=":22#1_0_3" index="3" disallow="pedestrian tram rail_urban rail rail_electric rail_fast ship" speed="13.89" length="3.38" width="3.50" shape="310.22,264.42 309.24,264.60 308.65,265.14 308.05,265.67 307.08,265.85"/>
        <lane id=":22#1_0_4" index="4" disallow="pedestrian tram rail_urban rail rail_electric rail_fast ship" speed="13.89" length="3.38" width="3.50" shape="310.52,260.93 309.55,261.11 308.95,261.65 308.36,262.18 307.38,262.37"/>
        <lane id=":22#1_0_5" index="5" allow="emergency authority" speed="13.89" length="3.38" width="3.50" shape="310.75,258.29 309.83,258.35 309.22,258.59 308.60,258.83 307.69,258.88"/>
        <lane id=":22#1_0_6" index="6" disallow="all" speed="1.39" length="3.38" width="0.50" shape="310.85,257.15 307.86,256.89"/>
        <lane id=":22#1_0_7" index="7" disallow="all" speed="1.39" length="3.38" width="0.63" shape="310.90,256.58 307.91,256.32"/>
    </edge>
    <edge id=":23.22_0" function="internal">
        <lane id=":23.22_0_0" index="0" disallow="all" speed="1.39" length="7.82" width="0.63" shape="332.94,270.31 330.47,270.59 328.81,271.17 327.15,271.68 324.69,271.76"/>
        <lane id=":23.22_0_1" index="1" disallow="all" speed="1.39" length="7.82" width="0.50" shape="332.94,269.74 330.48,270.02 328.83,270.61 327.18,271.12 324.74,271.20"/>
        <lane id=":23.22_0_2" index="2" disallow="pedestrian tram rail_urban rail rail_electric rail_fast ship" speed="13.89" length="7.82" width="3.50" shape="332.93,267.74 330.53,268.02 328.92,268.61 327.30,269.12 324.91,269.20"/>
        <lane id=":23.22_0_3" index="3" disallow="pedestrian tram rail_urban rail rail_electric rail_fast ship" speed="13.89" length="7.82" width="3.50" shape="332.93,264.24 330.62,264.52 329.06,265.11 327.52,265.63 325.21,265.72"/>
        <lane id=":23.22_0_4" index="4" disallow="pedestrian tram rail_urban rail rail_electric rail_fast ship" speed="13.89" length="7.82" width="3.50" shape="332.92,260.74 330.70,261.02 329.21,261.61 327.73,262.13 325.51,262.23"/>
        <lane id=":23.22_0_5" index="5" disallow="all" speed="1.39" length="7.82" width="0.50" shape="332.92,258.74 330.81,258.74 329.37,258.71 327.94,258.62 325.84,258.44"/>
        <lane id=":23.22_0_6" index="6" disallow="all" speed="1.39" length="7.82" width="0.63" shape="332.92,258.18 330.83,258.18 329.40,258.15 327.97,258.06 325.89,257.88"/>
    </edge>
    <edge id=":268_0" function="internal">
        <lane id=":268_0_0" index="0" disallow="all" speed="1.39" length="41.32" width="0.63" shape="1032.82,337.85 1032.69,350.79 1031.98,359.66 1030.13,368.36 1026.61,380.82">
            <param key="origId" value="269_9"/>
        </lane>
        <lane id=":268_0_1" index="1" disallow="all" speed="1.39" length="41.32" width="0.50" shape="1032.25,337.85 1032.13,350.74 1031.42,359.58 1029.57,368.25 1026.07,380.66">
            <param key="origId" value="269_8"/>
        </lane>
        <lane id=":268_0_2" index="2" disallow="pedestrian tram rail_urban rail rail_electric rail_fast ship" speed="13.89" length="41.32" width="3.50" shape="1030.25,337.85 1030.13,350.58 1029.43,359.30 1027.61,367.86 1024.15,380.11">
            <param key="origId" value="269_7"/>
        </lane>
        <lane id=":268_0_3" index="3" disallow="pedestrian tram rail_urban rail rail_electric rail_fast ship" speed="13.89" length="41.32" width="3.50" shape="1026.75,337.85 1026.63,350.28 1025.94,358.80 1024.16,367.17 1020.78,379.14">
            <param key="origId" value="269_6"/>
        </lane>
        <lane id=":268_0_4" index="4" disallow="pedestrian tram rail_urban rail rail_electric rail_fast ship" speed="13.89" length="41.32" width="3.50" shape="1023.25,337.85 1023.14,349.99 1022.46,358.31 1020.72,366.48 1017.42,378.16">
            <param key="origId" value="269_5"/>
        </lane>