<?xml version='1.0' encoding='utf-8'?>
<routes xmlns:xsi="http://www.w3.org/2001/XMLSchema-instance" xsi:noNamespaceSchemaLocation="http://sumo.dlr.de/xsd/routes_file.xsd">
    <vehicle depart="0.00" id="0" type="vehicle.audi.tt">
        <route edges="21.0.00 2.0.00 -26.0.00 -27.0.00 -17.0.00 -10.0.00" />
    </vehicle>
    <vehicle depart="2.00" id="1" type="vehicle.jeep.wrangler_rubicon">
        <route edges="-36.0.00 5.0.00 19.0.00 -28.0.00" />
    </vehicle>
    <vehicle depart="4.00" id="2" type="vehicle.jeep.wrangler_rubicon">
        <route edges="31.0.00 -47.0.00 -48.0.00 -7.0.00 -8.0.00 52.0.00 27.0.00 26.0.00" />
    </vehicle>
    <vehicle depart="6.00" id="3" type="vehicle.chevrolet.impala">
        <route edges="46.0.00 45.0.00 40.0.00 39.0.00 31.0.00 -47.0.00 -48.0.00 -49.0.00 -50.0.00 -15.0.00" />
    </vehicle>
    <vehicle depart="8.00" id="4" type="vehicle.citroen.c3">
        <route edges="-50.0.00 -15.0.00 -16.0.00 -17.0.00 -10.0.00" />
    </vehicle>
    <vehicle depart="10.00" id="5" type="vehicle.nissan.patrol">
        <route edges="-28.0.00 -29.0.00 26.0.00 1.0.00" />
    </vehicle>
    <vehicle depart="12.00" id="6" type="vehicle.micro.microlino">
        <route edges="-10.0.00 -11.0.00 3.0.00 2.0.00 -26.0.00" />
    </vehicle>
    <vehicle depart="14.00" id="7" type="vehicle.tesla.model3">
        <route edges="24.0.00 4.0.00 3.0.00 2.0.00 25.0.00 13.0.00" />
    </vehicle>
    <vehicle depart="16.00" id="8" type="vehicle.volkswagen.t2">
        <route edges="-28.0.00 10.0.00 17.0.00" />
    </vehicle>
    <vehicle depart="18.00" id="9" type="vehicle.ford.mustang">
        <route edges="38.0.00 37.0.00 36.0.00 35.0.00 42.0.00 49.0.00 48.0.00 47.0.00 44.0.00 39.0.00 31.0.00 -47.0.00 -48.0.00 -7.0.00 51.0.00 -0.0.00" />
    </vehicle>
    <vehicle depart="20.00" id="10" type="vehicle.seat.leon">
        <route edges="38.0.00 37.0.00 36.0.00 35.0.00 42.0.00 49.0.00 48.0.00 47.0.00 44.0.00 39.0.00 31.0.00 -47.0.00 -48.0.00 -7.0.00 -8.0.00 -9.0.00 -10.0.00 28.0.00" />
    </vehicle>
    <vehicle depart="22.00" id="11" type="vehicle.bmw.grandtourer">
        <route edges="-41.0.00 -46.0.00 -47.0.00 -48.0.00 -7.0.00 -8.0.00 -9.0.00 -18.0.00 -19.0.00 -20.0.00" />
    </vehicle>
    <vehicle depart="24.00" id="12" type="vehicle.nissan.micra">
        <route edges="52.0.00 27.0.00 26.0.00 -2.0.00 -3.0.00 -4.0.00 -5.0.00 -37.0.00 -38.0.00 -39.0.00 -40.0.00 -41.0.00" />
    </vehicle>
    <vehicle depart="26.00" id="13" type="vehicle.audi.tt">
        <route edges="-16.0.00" />
    </vehicle>
    <vehicle depart="28.00" id="14" type="vehicle.ford.mustang">
        <route edges="40.0.00 39.0.00 31.0.00 -47.0.00 -48.0.00 -7.0.00 -8.0.00 -9.0.00 -10.0.00 28.0.00 18.0.00" />
    </vehicle>
    <vehicle depart="30.00" id="15" type="vehicle.nissan.patrol">
        <route edges="38.0.00 37.0.00 36.0.00 35.0.00 42.0.00 49.0.00 48.0.00 47.0.00 44.0.00 39.0.00 31.0.00 -47.0.00 -48.0.00 -7.0.00 51.0.00 -0.0.00 30.0.00" />
    </vehicle>
    <vehicle depart="32.00" id="16" type="vehicle.volkswagen.t2">
        <route edges="12.0.00 11.0.00 10.0.00 9.0.00 8.0.00 7.0.00" />
    </vehicle>
    <vehicle depart="34.00" id="17" type="vehicle.mercedes.coupe">
        <route edges="-47.0.00 -48.0.00 -49.0.00 -50.0.00 -43.0.00 14.0.00" />
    </vehicle>
    <vehicle depart="36.00" id="18" type="vehicle.mini.cooper_s">
        <route edges="4.0.00 -12.0.00 -13.0.00 24.0.00 19.0.00" />
    </vehicle>
    <vehicle depart="38.00" id="19" type="vehicle.micro.microlino">
        <route edges="42.0.00 49.0.00 48.0.00 47.0.00 44.0.00 39.0.00 31.0.00 -47.0.00 -48.0.00 -7.0.00 -8.0.00 52.0.00 16.0.00" />
    </vehicle>
    <vehicle depart="40.00" id="20" type="vehicle.citroen.c3">
        <route edges="29.0.00 -11.0.00" />
    </vehicle>
    <vehicle depart="42.00" id="21" type="vehicle.carlamotors.carlacola">
        <route edges="-28.0.00 -11.0.00 -12.0.00 -13.0.00 -14.0.00 -36.0.00 -37.0.00 -38.0.00" />
    </vehicle>
    <vehicle depart="44.00" id="22" type="vehicle.audi.tt">
        <route edges="-14.0.00 -36.0.00 5.0.00 19.0.00 -28.0.00 -29.0.00" />
    </vehicle>
    <vehicle depart="46.00" id="23" type="vehicle.bmw.grandtourer">
        <route edges="-16.0.00 -17.0.00 -18.0.00 -19.0.00 -5.0.00 -37.0.00" />
    </vehicle>
    <vehicle depart="48.00" id="24" type="vehicle.bmw.grandtourer">
        <route edges="21.0.00 2.0.00 25.0.00 -14.0.00 -36.0.00 -37.0.00 -38.0.00 -39.0.00 -40.0.00 -41.0.00 -46.0.00" />
    </vehicle>
    <vehicle depart="50.00" id="25" type="vehicle.tesla.cybertruck">
        <route edges="-47.0.00 -48.0.00 -7.0.00 51.0.00 -0.0.00 30.0.00 -27.0.00" />
    </vehicle>
    <vehicle depart="52.00" id="26" type="vehicle.mercedes.coupe">
        <route edges="-36.0.00 5.0.00" />
    </vehicle>
    <vehicle depart="54.00" id="27" type="vehicle.toyota.prius">
        <route edges="24.0.00 19.0.00 18.0.00" />
    </vehicle>
    <vehicle depart="56.00" id="28" type="vehicle.tesla.model3">
        <route edges="-22.0.00 37.0.00 36.0.00 35.0.00 42.0.00 49.0.00 48.0.00 47.0.00 44.0.00 39.0.00 31.0.00 -47.0.00 -48.0.00 -7.0.00 51.0.00 -0.0.00 30.0.00" />
    </vehicle>
    <vehicle depart="58.00" id="29" type="vehicle.mercedes.coupe">
        <route edges="-22.0.00 37.0.00 36.0.00 35.0.00 42.0.00 49.0.00 48.0.00 47.0.00 44.0.00 39.0.00 31.0.00 -47.0.00 -48.0.00" />
    </vehicle>
    <vehicle depart="60.00" id="30" type="vehicle.tesla.cybertruck">
        <route edges="9.0.00 52.0.00 27.0.00 26.0.00 25.0.00 13.0.00 21.0.00" />
    </vehicle>
    <vehicle depart="62.00" id="31" type="vehicle.lincoln.mkz_2017">
        <route edges="14.0.00 13.0.00 12.0.00 11.0.00 10.0.00 17.0.00 27.0.00" />
    </vehicle>
    <vehicle depart="64.00" id="32" type="vehicle.carlamotors.carlacola">
        <route edges="40.0.00 39.0.00 38.0.00 37.0.00 36.0.00 35.0.00" />
    </vehicle>
    <vehicle depart="66.00" id="33" type="vehicle.micro.microlino">
        <route edges="-28.0.00 -11.0.00 -4.0.00 19.0.00 18.0.00 -10.0.00" />
    </vehicle>
    <vehicle depart="68.00" id="34" type="vehicle.lincoln.mkz_2017">
        <route edges="-4.0.00 -20.0.00 -14.0.00 -36.0.00" />
    </vehicle>
    <vehicle depart="70.00" id="35" type="vehicle.dodge.charger_police">
        <route edges="-27.0.00 -52.0.00 8.0.00 51.0.00" />
    </vehicle>
    <vehicle depart="72.00" id="36" type="vehicle.toyota.prius">
        <route edges="45.0.00 40.0.00 39.0.00 31.0.00 -47.0.00 -48.0.00 -7.0.00 -8.0.00 -9.0.00 -10.0.00 -11.0.00 -4.0.00" />
    </vehicle>
    <vehicle depart="74.00" id="37" type="vehicle.mini.cooper_s">
        <route edges="25.0.00 13.0.00 12.0.00 11.0.00 10.0.00 9.0.00 8.0.00 7.0.00 -49.0.00" />
    </vehicle>
    <vehicle depart="76.00" id="38" type="vehicle.nissan.patrol">
        <route edges="48.0.00 47.0.00 44.0.00 39.0.00 31.0.00 -47.0.00 -48.0.00 -7.0.00" />
    </vehicle>
    <vehicle depart="78.00" id="39" type="vehicle.jeep.wrangler_rubicon">
        <route edges="-36.0.00 5.0.00 -20.0.00 -25.0.00 -2.0.00 -3.0.00" />
    </vehicle>
    <vehicle depart="80.00" id="40" type="vehicle.seat.leon">
        <route edges="14.0.00 13.0.00 21.0.00 2.0.00 -26.0.00 -30.0.00" />
    </vehicle>
    <vehicle depart="82.00" id="41" type="vehicle.mercedes.coupe">
        <route edges="16.0.00 -0.0.00 -1.0.00 -2.0.00 -3.0.00 -4.0.00 -5.0.00 -37.0.00 -38.0.00 -39.0.00 33.0.00 47.0.00" />
    </vehicle>
    <vehicle depart="84.00" id="42" type="vehicle.audi.a2">
        <route edges="-49.0.00 -50.0.00 -15.0.00 -16.0.00 -17.0.00 -18.0.00 -28.0.00" />
    </vehicle>
    <vehicle depart="86.00" id="43" type="vehicle.tesla.model3">
        <route edges="9.0.00 52.0.00 27.0.00 29.0.00 10.0.00" />
    </vehicle>
    <vehicle depart="88.00" id="44" type="vehicle.volkswagen.t2">
        <route edges="-15.0.00 -0.0.00 -1.0.00 -2.0.00 -3.0.00 -12.0.00" />
    </vehicle>
    <vehicle depart="90.00" id="45" type="vehicle.bmw.grandtourer">
        <route edges="-17.0.00 -10.0.00 -11.0.00 3.0.00 2.0.00" />
    </vehicle>
    <vehicle depart="92.00" id="46" type="vehicle.audi.a2">
        <route edges="36.0.00 35.0.00 42.0.00 49.0.00 48.0.00 47.0.00 44.0.00 39.0.00 31.0.00 -47.0.00 -48.0.00 -49.0.00 -50.0.00" />
    </vehicle>
    <vehicle depart="94.00" id="47" type="vehicle.citroen.c3">
        <route edges="-13.0.00 -14.0.00 -36.0.00 -37.0.00 -38.0.00 -39.0.00 33.0.00 47.0.00 44.0.00 39.0.00 31.0.00 -47.0.00 -48.0.00" />
    </vehicle>
    <vehicle depart="96.00" id="48" type="vehicle.audi.tt">
        <route edges="9.0.00 52.0.00 27.0.00 26.0.00 25.0.00 13.0.00 12.0.00" />
    </vehicle>
    <vehicle depart="98.00" id="49" type="vehicle.audi.tt">
        <route edges="7.0.00 -49.0.00 -50.0.00 -43.0.00 -36.0.00 -37.0.00 -38.0.00 -39.0.00 33.0.00 47.0.00 44.0.00 39.0.00 38.0.00 37.0.00 36.0.00 35.0.00 42.0.00" />
    </vehicle>
    <vehicle depart="100.00" id="50" type="vehicle.bmw.grandtourer">
        <route edges="-0.0.00 30.0.00 29.0.00 -11.0.00 3.0.00" />
    </vehicle>
    <vehicle depart="102.00" id="51" type="vehicle.micro.microlino">
        <route edges="27.0.00 26.0.00 25.0.00 13.0.00 12.0.00" />
    </vehicle>
    <vehicle depart="104.00" id="52" type="vehicle.carlamotors.carlacola">
        <route edges="-36.0.00 5.0.00 -20.0.00 13.0.00 21.0.00" />
    </vehicle>
    <vehicle depart="106.00" id="53" type="vehicle.audi.tt">
        <route edges="-17.0.00 9.0.00 52.0.00 16.0.00 -51.0.00" />
    </vehicle>
    <vehicle depart="108.00" id="54" type="vehicle.audi.tt">
        <route edges="-7.0.00 51.0.00" />
    </vehicle>
    <vehicle depart="110.00" id="55" type="vehicle.bmw.grandtourer">
        <route edges="45.0.00 40.0.00 39.0.00 31.0.00 -47.0.00 -48.0.00 -7.0.00 -8.0.00 52.0.00 27.0.00 -30.0.00" />
    </vehicle>
    <vehicle depart="112.00" id="56" type="vehicle.tesla.cybertruck">
        <route edges="1.0.00 30.0.00 29.0.00 28.0.00 -19.0.00 -5.0.00 -37.0.00 -38.0.00 -39.0.00 33.0.00 47.0.00 44.0.00 39.0.00 38.0.00 37.0.00 36.0.00 35.0.00 42.0.00 -23.0.00" />
    </vehicle>
    <vehicle depart="114.00" id="57" type="vehicle.toyota.prius">
        <route edges="48.0.00 47.0.00 44.0.00" />
    </vehicle>
    <vehicle depart="116.00" id="58" type="vehicle.carlamotors.carlacola">
        <route edges="-38.0.00 -39.0.00 33.0.00 47.0.00 44.0.00 39.0.00 31.0.00 -47.0.00 -48.0.00 -7.0.00 -8.0.00 52.0.00 27.0.00 26.0.00 25.0.00 13.0.00 21.0.00" />
    </vehicle>
    <vehicle depart="118.00" id="59" type="vehicle.bmw.grandtourer">
        <route edges="18.0.00 -10.0.00 -11.0.00 -4.0.00 -20.0.00" />
    </vehicle>
    <vehicle depart="120.00" id="60" type="vehicle.audi.tt">
        <route edges="34.0.00 -39.0.00 33.0.00 47.0.00 44.0.00 39.0.00 31.0.00 -47.0.00 -48.0.00 -7.0.00 -8.0.00 52.0.00 27.0.00 26.0.00 25.0.00 13.0.00 12.0.00" />
    </vehicle>
    <vehicle depart="122.00" id="61" type="vehicle.dodge.charger_police">
        <route edges="35.0.00 42.0.00 49.0.00 48.0.00 47.0.00 44.0.00 39.0.00 31.0.00 -47.0.00 -48.0.00 -7.0.00 -8.0.00 52.0.00 27.0.00 26.0.00 25.0.00 13.0.00 12.0.00" />
    </vehicle>
    <vehicle depart="124.00" id="62" type="vehicle.toyota.prius">
        <route edges="-0.0.00 -1.0.00 -2.0.00 -3.0.00 -4.0.00 -5.0.00 -37.0.00 -38.0.00 -39.0.00 -40.0.00" />
    </vehicle>
    <vehicle depart="126.00" id="63" type="vehicle.nissan.patrol">
        <route edges="-1.0.00 -2.0.00 -3.0.00 -4.0.00 -5.0.00 -37.0.00 -38.0.00 -39.0.00 33.0.00 47.0.00 44.0.00 39.0.00 38.0.00 37.0.00 36.0.00 35.0.00 42.0.00 49.0.00" />
    </vehicle>
    <vehicle depart="128.00" id="64" type="vehicle.jeep.wrangler_rubicon">
        <route edges="45.0.00 40.0.00 39.0.00 31.0.00 -47.0.00 -48.0.00 -7.0.00 -8.0.00 -9.0.00 -18.0.00 -19.0.00 4.0.00" />
    </vehicle>
    <vehicle depart="130.00" id="65" type="vehicle.nissan.patrol">
        <route edges="-39.0.00 33.0.00 47.0.00 44.0.00 39.0.00 31.0.00 -47.0.00 -48.0.00 -7.0.00 -8.0.00 -9.0.00 -10.0.00 -11.0.00 -12.0.00 -13.0.00" />
    </vehicle>
    <vehicle depart="132.00" id="66" type="vehicle.audi.a2">
        <route edges="45.0.00 40.0.00 39.0.00 31.0.00 -47.0.00 -48.0.00 -7.0.00 51.0.00" />
    </vehicle>
    <vehicle depart="134.00" id="67" type="vehicle.mercedes.coupe">
        <route edges="-15.0.00 -16.0.00 27.0.00 -30.0.00 0.0.00" />
    </vehicle>
    <vehicle depart="136.00" id="68" type="vehicle.audi.tt">
        <route edges="-14.0.00 -36.0.00 -37.0.00 -38.0.00 -39.0.00 33.0.00 47.0.00 44.0.00 39.0.00 31.0.00 -47.0.00 34.0.00" />
    </vehicle>
    <vehicle depart="138.00" id="69" type="vehicle.mini.cooper_s">
        <route edges="34.0.00 -39.0.00 33.0.00 47.0.00 44.0.00 39.0.00 31.0.00 -47.0.00 -48.0.00 -7.0.00 -8.0.00 -9.0.00 -18.0.00 -19.0.00" />
    </vehicle>
    <vehicle depart="140.00" id="70" type="vehicle.ford.mustang">
        <route edges="-9.0.00 -18.0.00 -19.0.00 -20.0.00 13.0.00" />
    </vehicle>
    <vehicle depart="142.00" id="71" type="vehicle.carlamotors.carlacola">
        <route edges="-36.0.00 -37.0.00 -38.0.00 -39.0.00 33.0.00 47.0.00 44.0.00" />
    </vehicle>
    <vehicle depart="144.00" id="72" type="vehicle.jeep.wrangler_rubicon">
        <route edges="-50.0.00 -15.0.00 -0.0.00 30.0.00 -27.0.00" />
    </vehicle>
    <vehicle depart="146.00" id="73" type="vehicle.lincoln.mkz_2017">
        <route edges="12.0.00 3.0.00 2.0.00 1.0.00 30.0.00" />
    </vehicle>
    <vehicle depart="148.00" id="74" type="vehicle.jeep.wrangler_rubicon">
        <route edges="-26.0.00 29.0.00 -11.0.00 -4.0.00" />
    </vehicle>
    <vehicle depart="150.00" id="75" type="vehicle.toyota.prius">
        <route edges="9.0.00 52.0.00 27.0.00 26.0.00 25.0.00 24.0.00" />
    </vehicle>
    <vehicle depart="152.00" id="76" type="vehicle.citroen.c3">
        <route edges="-52.0.00 -9.0.00 -18.0.00 -19.0.00 4.0.00 11.0.00" />
    </vehicle>
    <vehicle depart="154.00" id="77" type="vehicle.seat.leon">
        <route edges="-18.0.00 -28.0.00" />
    </vehicle>
    <vehicle depart="156.00" id="78" type="vehicle.seat.leon">
        <route edges="-41.0.00 -46.0.00 -47.0.00 -48.0.00 -7.0.00 -8.0.00 -9.0.00 17.0.00" />
    </vehicle>
    <vehicle depart="158.00" id="79" type="vehicle.dodge.charger_police">
        <route edges="-29.0.00 26.0.00 -2.0.00 -3.0.00 -4.0.00 19.0.00 -28.0.00" />
    </vehicle>
    <vehicle depart="160.00" id="80" type="vehicle.lincoln.mkz_2017">
        <route edges="-14.0.00 -36.0.00 5.0.00 4.0.00 3.0.00 2.0.00" />
    </vehicle>
    <vehicle depart="162.00" id="81" type="vehicle.toyota.prius">
        <route edges="-28.0.00 -11.0.00 -12.0.00 -13.0.00 -14.0.00 -36.0.00 -37.0.00 -38.0.00 -39.0.00 33.0.00 47.0.00" />
    </vehicle>
    <vehicle depart="164.00" id="82" type="vehicle.audi.etron">
        <route edges="42.0.00 49.0.00 48.0.00 47.0.00 44.0.00 39.0.00 31.0.00 -47.0.00 -48.0.00 -7.0.00 -8.0.00 -9.0.00 -10.0.00 -11.0.00 -12.0.00 -13.0.00 -14.0.00" />
    </vehicle>
    <vehicle depart="166.00" id="83" type="vehicle.citroen.c3">
        <route edges="-29.0.00 26.0.00" />
    </vehicle>
    <vehicle depart="168.00" id="84" type="vehicle.ford.mustang">
        <route edges="-27.0.00 -17.0.00 -18.0.00 -19.0.00" />
    </vehicle>
    <vehicle depart="170.00" id="85" type="vehicle.micro.microlino">
        <route edges="5.0.00 19.0.00 -28.0.00 -29.0.00 -30.0.00 0.0.00 15.0.00" />
    </vehicle>
    <vehicle depart="172.00" id="86" type="vehicle.volkswagen.t2">
        <route edges="-9.0.00 -18.0.00 -19.0.00 -5.0.00 -37.0.00 -38.0.00 -39.0.00 33.0.00 47.0.00 44.0.00 39.0.00 38.0.00 37.0.00 36.0.00" />
    </vehicle>
    <vehicle depart="174.00" id="87" type="vehicle.micro.microlino">
        <route edges="38.0.00 37.0.00 36.0.00 35.0.00 42.0.00 49.0.00 48.0.00 47.0.00 44.0.00 39.0.00 31.0.00 -47.0.00 -48.0.00 -7.0.00 -8.0.00 -9.0.00 -10.0.00 -11.0.00 -12.0.00 -13.0.00 -25.0.00" />
    </vehicle>
    <vehicle depart="176.00" id="88" type="vehicle.jeep.wrangler_rubicon">
        <route edges="-16.0.00 27.0.00 -30.0.00 0.0.00 -51.0.00" />
    </vehicle>
    <vehicle depart="178.00" id="89" type="vehicle.volkswagen.t2">
        <route edges="-50.0.00 -15.0.00 -51.0.00 -8.0.00" />
    </vehicle>
    <vehicle depart="180.00" id="90" type="vehicle.micro.microlino">
        <route edges="30.0.00 26.0.00" />
    </vehicle>
    <vehicle depart="182.00" id="91" type="vehicle.jeep.wrangler_rubicon">
        <route edges="8.0.00 51.0.00 -16.0.00" />
    </vehicle>
    <vehicle depart="184.00" id="92" type="vehicle.bmw.grandtourer">
        <route edges="-5.0.00 -37.0.00 -38.0.00 -39.0.00 -40.0.00 -41.0.00" />
    </vehicle>
    <vehicle depart="186.00" id="93" type="vehicle.mercedes.coupe">
        <route edges="42.0.00 49.0.00 48.0.00 47.0.00 44.0.00 39.0.00 31.0.00 -47.0.00 -48.0.00 -7.0.00 -8.0.00 52.0.00 27.0.00 26.0.00 -2.0.00 -3.0.00" />
    </vehicle>
    <vehicle depart="188.00" id="94" type="vehicle.tesla.model3">
        <route edges="-25.0.00 -2.0.00 -3.0.00 -4.0.00 -5.0.00 -37.0.00 -38.0.00 -39.0.00 33.0.00 47.0.00 44.0.00 39.0.00 31.0.00 -47.0.00 -48.0.00 -7.0.00" />
    </vehicle>
    <vehicle depart="190.00" id="95" type="vehicle.tesla.cybertruck">
        <route edges="-50.0.00 -43.0.00 -36.0.00 -37.0.00" />
    </vehicle>
    <vehicle depart="192.00" id="96" type="vehicle.jeep.wrangler_rubicon">
        <route edges="-3.0.00 -4.0.00 -5.0.00 -37.0.00 -38.0.00 -39.0.00 33.0.00 47.0.00 44.0.00 39.0.00 38.0.00 37.0.00 36.0.00 35.0.00 42.0.00 49.0.00" />
    </vehicle>
    <vehicle depart="194.00" id="97" type="vehicle.nissan.patrol">
        <route edges="-52.0.00 -9.0.00 -18.0.00 -19.0.00 -5.0.00 -37.0.00 -38.0.00 -39.0.00 33.0.00 47.0.00 44.0.00 39.0.00 38.0.00 37.0.00 36.0.00 35.0.00 42.0.00" />
    </vehicle>
    <vehicle depart="196.00" id="98" type="vehicle.lincoln.mkz_2017">
        <route edges="13.0.00 12.0.00 -4.0.00 19.0.00 -28.0.00 -11.0.00 -12.0.00" />
    </vehicle>
    <vehicle depart="198.00" id="99" type="vehicle.toyota.prius">
        <route edges="9.0.00 52.0.00 27.0.00 29.0.00 28.0.00 -19.0.00 4.0.00" />
    </vehicle>
    <vehicle depart="200.00" id="100" type="vehicle.ford.mustang">
        <route edges="7.0.00 -49.0.00 -50.0.00 -43.0.00 -36.0.00 -37.0.00 -38.0.00 -39.0.00 33.0.00 47.0.00 44.0.00 39.0.00 38.0.00 37.0.00 36.0.00 35.0.00 42.0.00 49.0.00" />
    </vehicle>
    <vehicle depart="202.00" id="101" type="vehicle.ford.mustang">
        <route edges="40.0.00 39.0.00 31.0.00 -47.0.00 34.0.00 -39.0.00 -40.0.00 -41.0.00 -22.0.00" />
    </vehicle>
    <vehicle depart="204.00" id="102" type="vehicle.tesla.cybertruck">
        <route edges="0.0.00 -16.0.00 -17.0.00 -10.0.00 -29.0.00 -27.0.00" />
    </vehicle>
    <vehicle depart="206.00" id="103" type="vehicle.jeep.wrangler_rubicon">
        <route edges="-49.0.00 -50.0.00 -15.0.00 -0.0.00 -1.0.00 -2.0.00 -3.0.00 -12.0.00 -13.0.00" />
    </vehicle>
    <vehicle depart="208.00" id="104" type="vehicle.toyota.prius">
        <route edges="-47.0.00 -48.0.00 -7.0.00 -8.0.00 52.0.00 -17.0.00 9.0.00 8.0.00" />
    </vehicle>
    <vehicle depart="210.00" id="105" type="vehicle.audi.a2">
        <route edges="-36.0.00 -37.0.00 -38.0.00 -39.0.00 33.0.00 47.0.00 44.0.00 39.0.00 38.0.00 37.0.00 36.0.00" />
    </vehicle>
    <vehicle depart="212.00" id="106" type="vehicle.nissan.micra">
        <route edges="-7.0.00 -8.0.00 52.0.00 -17.0.00 9.0.00 8.0.00 7.0.00 -49.0.00 -50.0.00" />
    </vehicle>
    <vehicle depart="214.00" id="107" type="vehicle.citroen.c3">
        <route edges="52.0.00 -17.0.00 9.0.00" />
    </vehicle>
    <vehicle depart="216.00" id="108" type="vehicle.tesla.cybertruck">
        <route edges="14.0.00 13.0.00 12.0.00 3.0.00" />
    </vehicle>
    <vehicle depart="218.00" id="109" type="vehicle.micro.microlino">
        <route edges="-20.0.00 -14.0.00 -36.0.00 -37.0.00 -38.0.00" />
    </vehicle>
    <vehicle depart="220.00" id="110" type="vehicle.toyota.prius">
        <route edges="7.0.00 -49.0.00 -50.0.00 -15.0.00 -0.0.00 30.0.00 -27.0.00 16.0.00" />
    </vehicle>
    <vehicle depart="222.00" id="111" type="vehicle.volkswagen.t2">
        <route edges="13.0.00 12.0.00 -4.0.00 -5.0.00 -37.0.00 -38.0.00 -39.0.00 33.0.00" />
    </vehicle>
    <vehicle depart="224.00" id="112" type="vehicle.mercedes.coupe">
        <route edges="-12.0.00 -13.0.00 -25.0.00 -26.0.00 -27.0.00 16.0.00" />
    </vehicle>
    <vehicle depart="226.00" id="113" type="vehicle.seat.leon">
        <route edges="1.0.00 30.0.00 29.0.00 28.0.00 -19.0.00 -5.0.00 -37.0.00 -38.0.00 -39.0.00 33.0.00 47.0.00 44.0.00 39.0.00 38.0.00 37.0.00 36.0.00 35.0.00 42.0.00" />
    </vehicle>
    <vehicle depart="228.00" id="114" type="vehicle.volkswagen.t2">
        <route edges="-20.0.00 13.0.00 12.0.00 11.0.00 10.0.00 9.0.00 52.0.00" />
    </vehicle>
    <vehicle depart="230.00" id="115" type="vehicle.audi.a2">
        <route edges="-14.0.00 -36.0.00 5.0.00 -20.0.00 -25.0.00" />
    </vehicle>
    <vehicle depart="232.00" id="116" type="vehicle.nissan.patrol">
        <route edges="17.0.00 27.0.00 26.0.00" />
    </vehicle>
    <vehicle depart="234.00" id="117" type="vehicle.bmw.grandtourer">
        <route edges="-29.0.00 -27.0.00 -17.0.00 -18.0.00" />
    </vehicle>
    <vehicle depart="236.00" id="118" type="vehicle.carlamotors.carlacola">
        <route edges="46.0.00 45.0.00 40.0.00 39.0.00 31.0.00 -47.0.00 -48.0.00 -7.0.00 -8.0.00 52.0.00 27.0.00 26.0.00 -2.0.00 -3.0.00" />
    </vehicle>
    <vehicle depart="238.00" id="119" type="vehicle.tesla.model3">
        <route edges="17.0.00 27.0.00 26.0.00 -2.0.00 -3.0.00 -4.0.00 19.0.00" />
    </vehicle>
    <vehicle depart="240.00" id="120" type="vehicle.nissan.patrol">
        <route edges="-50.0.00 -15.0.00 -0.0.00 30.0.00 -27.0.00 16.0.00" />
    </vehicle>
    <vehicle depart="242.00" id="121" type="vehicle.audi.a2">
        <route edges="11.0.00 28.0.00 -19.0.00 4.0.00 -12.0.00 -13.0.00 -14.0.00 -36.0.00 5.0.00" />
    </vehicle>
    <vehicle depart="244.00" id="122" type="vehicle.citroen.c3">
        <route edges="-26.0.00 29.0.00 -11.0.00 3.0.00" />
    </vehicle>
    <vehicle depart="246.00" id="123" type="vehicle.tesla.model3">
        <route edges="-29.0.00 -27.0.00 -52.0.00 8.0.00 7.0.00 -49.0.00" />
    </vehicle>
    <vehicle depart="248.00" id="124" type="vehicle.toyota.prius">
        <route edges="26.0.00 -2.0.00 -3.0.00 -4.0.00 -5.0.00 -37.0.00 -38.0.00 -39.0.00" />
    </vehicle>
    <vehicle depart="250.00" id="125" type="vehicle.nissan.micra">
        <route edges="-4.0.00 -5.0.00 -37.0.00 -38.0.00 -39.0.00 33.0.00" />
    </vehicle>
    <vehicle depart="252.00" id="126" type="vehicle.ford.mustang">
        <route edges="-14.0.00 -36.0.00 -37.0.00 -38.0.00 -39.0.00 33.0.00 47.0.00 44.0.00 39.0.00 31.0.00 -47.0.00 -48.0.00 -7.0.00" />
    </vehicle>
    <vehicle depart="254.00" id="127" type="vehicle.dodge.charger_police">
        <route edges="9.0.00" />
    </vehicle>
    <vehicle depart="256.00" id="128" type="vehicle.tesla.model3">
        <route edges="-14.0.00 -36.0.00 5.0.00 19.0.00 -28.0.00 -29.0.00 -27.0.00" />
    </vehicle>
    <vehicle depart="258.00" id="129" type="vehicle.carlamotors.carlacola">
        <route edges="-36.0.00 5.0.00" />
    </vehicle>
    <vehicle depart="260.00" id="130" type="vehicle.lincoln.mkz_2017">
        <route edges="45.0.00" />
    </vehicle>
    <vehicle depart="262.00" id="131" type="vehicle.citroen.c3">
        <route edges="-47.0.00 -48.0.00 -7.0.00 -8.0.00 -9.0.00 -18.0.00 -19.0.00 -20.0.00" />
    </vehicle>
    <vehicle depart="264.00" id="132" type="vehicle.nissan.patrol">
        <route edges="4.0.00 3.0.00 2.0.00 -26.0.00 29.0.00" />
    </vehicle>
    <vehicle depart="266.00" id="133" type="vehicle.tesla.model3">
        <route edges="19.0.00 18.0.00 9.0.00 8.0.00" />
    </vehicle>
    <vehicle depart="268.00" id="134" type="vehicle.audi.etron">
        <route edges="24.0.00 19.0.00 18.0.00 17.0.00 16.0.00 -0.0.00" />
    </vehicle>
    <vehicle depart="270.00" id="135" type="vehicle.tesla.cybertruck">
        <route edges="39.0.00 31.0.00 -47.0.00 34.0.00 -39.0.00" />
    </vehicle>
    <vehicle depart="272.00" id="136" type="vehicle.volkswagen.t2">
        <route edges="25.0.00 -14.0.00 -36.0.00 5.0.00" />
    </vehicle>
    <vehicle depart="274.00" id="137" type="vehicle.toyota.prius">
        <route edges="-19.0.00 4.0.00 11.0.00 10.0.00 -18.0.00" />
    </vehicle>
    <vehicle depart="276.00" id="138" type="vehicle.bmw.grandtourer">
        <route edges="-17.0.00 9.0.00 52.0.00 16.0.00 15.0.00 -43.0.00 14.0.00" />
    </vehicle>
    <vehicle depart="278.00" id="139" type="vehicle.bmw.grandtourer">
        <route edges="-36.0.00 5.0.00 19.0.00 18.0.00" />
    </vehicle>
    <vehicle depart="280.00" id="140" type="vehicle.volkswagen.t2">
        <route edges="3.0.00 2.0.00 -26.0.00" />
    </vehicle>
    <vehicle depart="282.00" id="141" type="vehicle.ford.mustang">
        <route edges="21.0.00 2.0.00 -26.0.00 -30.0.00" />
    </vehicle>
    <vehicle depart="284.00" id="142" type="vehicle.micro.microlino">
        <route edges="0.0.00 15.0.00 -43.0.00 -36.0.00 -37.0.00 -38.0.00 -39.0.00 33.0.00 47.0.00" />
    </vehicle>
    <vehicle depart="286.00" id="143" type="vehicle.seat.leon">
        <route edges="40.0.00 39.0.00 31.0.00 -47.0.00 -48.0.00 -7.0.00 51.0.00 -16.0.00" />
    </vehicle>
    <vehicle depart="288.00" id="144" type="vehicle.tesla.model3">
        <route edges="-50.0.00 -43.0.00 -36.0.00 -37.0.00" />
    </vehicle>
    <vehicle depart="290.00" id="145" type="vehicle.mercedes.coupe">
        <route edges="-0.0.00 -1.0.00 -2.0.00 -3.0.00 -4.0.00 -5.0.00 -37.0.00 -38.0.00 -39.0.00 33.0.00 47.0.00 44.0.00 39.0.00 38.0.00 37.0.00 36.0.00 35.0.00" />
    </vehicle>
    <vehicle depart="292.00" id="146" type="vehicle.tesla.cybertruck">
        <route edges="21.0.00 2.0.00 -26.0.00 -30.0.00" />
    </vehicle>
    <vehicle depart="294.00" id="147" type="vehicle.mini.cooper_s">
        <route edges="31.0.00 -47.0.00 -48.0.00 -7.0.00 -8.0.00 52.0.00 27.0.00 26.0.00 25.0.00 13.0.00" />
    </vehicle>
    <vehicle depart="296.00" id="148" type="vehicle.carlamotors.carlacola">
        <route edges="-51.0.00 -8.0.00 52.0.00 16.0.00 -0.0.00" />
    </vehicle>
    <vehicle depart="298.00" id="149" type="vehicle.audi.tt">
        <route edges="-14.0.00 -36.0.00 -37.0.00 -38.0.00 -39.0.00 33.0.00 47.0.00 46.0.00 45.0.00" />
    </vehicle>
    <vehicle depart="300.00" id="150" type="vehicle.toyota.prius">
        <route edges="47.0.00 44.0.00 39.0.00 31.0.00 -47.0.00 -48.0.00 -7.0.00 -8.0.00 52.0.00 27.0.00 26.0.00 25.0.00 13.0.00" />
    </vehicle>
    <vehicle depart="302.00" id="151" type="vehicle.toyota.prius">
        <route edges="4.0.00 11.0.00 10.0.00 17.0.00 16.0.00" />
    </vehicle>
    <vehicle depart="304.00" id="152" type="vehicle.seat.leon">
        <route edges="-2.0.00 -3.0.00 11.0.00 28.0.00 -19.0.00" />
    </vehicle>
    <vehicle depart="306.00" id="153" type="vehicle.dodge.charger_police">
        <route edges="-39.0.00 33.0.00 47.0.00" />
    </vehicle>
    <vehicle depart="308.00" id="154" type="vehicle.audi.etron">
        <route edges="37.0.00 36.0.00 35.0.00 42.0.00" />
    </vehicle>
    <vehicle depart="310.00" id="155" type="vehicle.dodge.charger_police">
        <route edges="47.0.00 44.0.00 39.0.00 31.0.00 -47.0.00 -48.0.00 -7.0.00 51.0.00 -0.0.00 30.0.00 -27.0.00" />
    </vehicle>
    <vehicle depart="312.00" id="156" type="vehicle.toyota.prius">
        <route edges="-3.0.00 11.0.00 -29.0.00 -30.0.00 0.0.00 -16.0.00" />
    </vehicle>
    <vehicle depart="314.00" id="157" type="vehicle.citroen.c3">
        <route edges="35.0.00 42.0.00 49.0.00 48.0.00 47.0.00 46.0.00 45.0.00" />
    </vehicle>
    <vehicle depart="316.00" id="158" type="vehicle.audi.etron">
        <route edges="-5.0.00 -37.0.00 -38.0.00 -39.0.00 33.0.00 47.0.00 44.0.00 39.0.00 31.0.00 -47.0.00 -48.0.00 -7.0.00 -8.0.00 -9.0.00 -10.0.00 -11.0.00 -4.0.00 19.0.00" />
    </vehicle>
    <vehicle depart="318.00" id="159" type="vehicle.ford.mustang">
        <route edges="-20.0.00 -14.0.00 -36.0.00 -37.0.00 -38.0.00 -39.0.00 33.0.00 47.0.00 44.0.00 39.0.00 38.0.00 37.0.00 36.0.00 35.0.00 42.0.00 49.0.00" />
    </vehicle>
    <vehicle depart="320.00" id="160" type="vehicle.chevrolet.impala">
        <route edges="44.0.00 39.0.00 31.0.00 -47.0.00 -48.0.00 -7.0.00 -8.0.00 52.0.00 -17.0.00 9.0.00 8.0.00 7.0.00" />
    </vehicle>
    <vehicle depart="322.00" id="161" type="vehicle.audi.a2">
        <route edges="38.0.00 37.0.00 36.0.00 35.0.00 42.0.00 49.0.00 48.0.00 47.0.00 46.0.00 45.0.00" />
    </vehicle>
    <vehicle depart="324.00" id="162" type="vehicle.toyota.prius">
        <route edges="-10.0.00 -11.0.00 -12.0.00 -13.0.00 -14.0.00 -36.0.00 -37.0.00 -38.0.00 -39.0.00 33.0.00 47.0.00 44.0.00 39.0.00 31.0.00" />
    </vehicle>
    <vehicle depart="326.00" id="163" type="vehicle.audi.tt">
        <route edges="-40.0.00 -41.0.00 -22.0.00 37.0.00 36.0.00 35.0.00 42.0.00 49.0.00" />
    </vehicle>
    <vehicle depart="328.00" id="164" type="vehicle.chevrolet.impala">
        <route edges="37.0.00 36.0.00 35.0.00 42.0.00 49.0.00 48.0.00 47.0.00 44.0.00" />
    </vehicle>
    <vehicle depart="330.00" id="165" type="vehicle.tesla.cybertruck">
        <route edges="38.0.00 37.0.00 36.0.00 35.0.00 42.0.00 49.0.00 48.0.00 47.0.00 44.0.00 39.0.00 31.0.00 -47.0.00 -48.0.00 -7.0.00 -8.0.00 -9.0.00 -10.0.00 -11.0.00 -12.0.00 -13.0.00 -14.0.00 -36.0.00" />
    </vehicle>
    <vehicle depart="332.00" id="166" type="vehicle.mini.cooper_s">
        <route edges="36.0.00 35.0.00 42.0.00 49.0.00 48.0.00 47.0.00 44.0.00 39.0.00 31.0.00 -47.0.00 -48.0.00 -7.0.00 -8.0.00 52.0.00 -17.0.00" />
    </vehicle>
    <vehicle depart="334.00" id="167" type="vehicle.tesla.cybertruck">
        <route edges="44.0.00 39.0.00 38.0.00 37.0.00 36.0.00 35.0.00 42.0.00" />
    </vehicle>
    <vehicle depart="336.00" id="168" type="vehicle.audi.a2">