<?xml version="1.0" encoding="UTF-8"?>

<!-- generated on 2022-07-28 08:24:59 by Eclipse SUMO netedit Version 1.13.0
<configuration xmlns:xsi="http://www.w3.org/2001/XMLSchema-instance" xsi:noNamespaceSchemaLocation="http://sumo.dlr.de/xsd/netconvertConfiguration.xsd">

    <output>
        <output-file value="/media/fudaocheng/dataDir/ZProjects/scenarioGenerate/networkFiles/corrider/corridor.net.xml"/>
    </output>

    <processing>
        <offset.disable-normalization value="true"/>
    </processing>

    <junctions>
        <no-turnarounds value="true"/>
    </junctions>

    <report>
        <aggregate-warnings value="5"/>
    </report>

</configuration>
-->

<net version="1.9" junctionCornerDetail="5" limitTurnSpeed="5.50" xmlns:xsi="http://www.w3.org/2001/XMLSchema-instance" xsi:noNamespaceSchemaLocation="http://sumo.dlr.de/xsd/net_file.xsd">

    <location netOffset="0.00,0.00" convBoundary="-100.00,-100.00,400.00,100.00" origBoundary="10000000000.00,10000000000.00,-10000000000.00,-10000000000.00" projParameter="!"/>

    <edge id=":J2_0" function="internal">
        <lane id=":J2_0_0" index="0" speed="6.51" length="9.03" shape="-8.00,13.60 -8.35,11.15 -9.40,9.40 -11.15,8.35 -13.60,8.00"/>
    </edge>
    <edge id=":J2_1" function="internal">
        <lane id=":J2_1_0" index="0" speed="13.89" length="27.20" shape="-8.00,13.60 -8.00,-13.60"/>
        <lane id=":J2_1_1" index="1" speed="13.89" length="27.20" shape="-4.80,13.60 -4.80,-13.60"/>
        <lane id=":J2_1_2" index="2" speed="13.89" length="27.20" shape="-1.60,13.60 -1.60,-13.60"/>
    </edge>
    <edge id=":J2_4" function="internal">
        <lane id=":J2_4_0" index="0" speed="10.36" length="5.01" shape="-1.60,13.60 -0.89,8.64"/>
    </edge>
    <edge id=":J2_20" function="internal">
        <lane id=":J2_20_0" index="0" speed="10.36" length="19.50" shape="-0.89,8.64 -0.65,6.95 2.20,2.20 6.95,-0.65 13.60,-1.60"/>
    </edge>
    <edge id=":J2_5" function="internal">
        <lane id=":J2_5_0" index="0" speed="6.51" length="9.03" shape="13.60,8.00 11.15,8.35 9.40,9.40 8.35,11.15 8.00,13.60"/>
    </edge>
    <edge id=":J2_6" function="internal">
        <lane id=":J2_6_0" index="0" speed="13.89" length="27.20" shape="13.60,8.00 -13.60,8.00"/>
        <lane id=":J2_6_1" index="1" speed="13.89" length="27.20" shape="13.60,4.80 -13.60,4.80"/>
        <lane id=":J2_6_2" index="2" speed="13.89" length="27.20" shape="13.60,1.60 -13.60,1.60"/>
    </edge>
    <edge id=":J2_9" function="internal">
        <lane id=":J2_9_0" index="0" speed="10.36" length="24.51" shape="13.60,1.60 6.95,0.65 2.20,-2.20 -0.65,-6.95 -1.60,-13.60"/>
    </edge>
    <edge id=":J2_10" function="internal">
        <lane id=":J2_10_0" index="0" speed="6.51" length="9.03" shape="8.00,-13.60 8.35,-11.15 9.40,-9.40 11.15,-8.35 13.60,-8.00"/>
    </edge>
    <edge id=":J2_11" function="internal">
        <lane id=":J2_11_0" index="0" speed="13.89" length="27.20" shape="8.00,-13.60 8.00,13.60"/>
        <lane id=":J2_11_1" index="1" speed="13.89" length="27.20" shape="4.80,-13.60 4.80,13.60"/>
        <lane id=":J2_11_2" index="2" speed="13.89" length="27.20" shape="1.60,-13.60 1.60,13.60"/>
    </edge>
    <edge id=":J2_14" function="internal">
        <lane id=":J2_14_0" index="0" speed="10.36" length="5.01" shape="1.60,-13.60 0.89,-8.64"/>
    </edge>
    <edge id=":J2_21" function="internal">
        <lane id=":J2_21_0" index="0" speed="10.36" length="19.50" shape="0.89,-8.64 0.65,-6.95 -2.20,-2.20 -6.95,0.65 -13.60,1.60"/>
    </edge>
    <edge id=":J2_15" function="internal">
        <lane id=":J2_15_0" index="0" speed="6.51" length="9.03" shape="-13.60,-8.00 -11.15,-8.35 -9.40,-9.40 -8.35,-11.15 -8.00,-13.60"/>
    </edge>
    <edge id=":J2_16" function="internal">
        <lane id=":J2_16_0" index="0" speed="13.89" length="27.20" shape="-13.60,-8.00 13.60,-8.00"/>
        <lane id=":J2_16_1" index="1" speed="13.89" length="27.20" shape="-13.60,-4.80 13.60,-4.80"/>
        <lane id=":J2_16_2" index="2" speed="13.89" length="27.20" shape="-13.60,-1.60 13.60,-1.60"/>
    </edge>
    <edge id=":J2_19" function="internal">
        <lane id=":J2_19_0" index="0" speed="10.36" length="24.51" shape="-13.60,-1.60 -6.95,-0.65 -2.20,2.20 0.65,6.95 1.60,13.60"/>
    </edge>
    <edge id=":J3_0" function="internal">
        <lane id=":J3_0_0" index="0" speed="6.51" length="9.03" shape="92.00,13.60 91.65,11.15 90.60,9.40 88.85,8.35 86.40,8.00"/>
    </edge>
    <edge id=":J3_1" function="internal">
        <lane id=":J3_1_0" index="0" speed="13.89" length="27.20" shape="92.00,13.60 92.00,-13.60"/>
        <lane id=":J3_1_1" index="1" speed="13.89" length="27.20" shape="95.20,13.60 95.20,-13.60"/>
        <lane id=":J3_1_2" index="2" speed="13.89" length="27.20" shape="98.40,13.60 98.40,-13.60"/>
    </edge>
    <edge id=":J3_4" function="internal">
        <lane id=":J3_4_0" index="0" speed="10.36" length="5.01" shape="98.40,13.60 99.11,8.64"/>
    </edge>
    <edge id=":J3_20" function="internal">
        <lane id=":J3_20_0" index="0" speed="10.36" length="19.50" shape="99.11,8.64 99.35,6.95 102.20,2.20 106.95,-0.65 113.60,-1.60"/>
    </edge>
    <edge id=":J3_5" function="internal">
        <lane id=":J3_5_0" index="0" speed="6.51" length="9.03" shape="113.60,8.00 111.15,8.35 109.40,9.40 108.35,11.15 108.00,13.60"/>
    </edge>
    <edge id=":J3_6" function="internal">
        <lane id=":J3_6_0" index="0" speed="13.89" length="27.20" shape="113.60,8.00 86.40,8.00"/>
        <lane id=":J3_6_1" index="1" speed="13.89" length="27.20" shape="113.60,4.80 86.40,4.80"/>
        <lane id=":J3_6_2" index="2" speed="13.89" length="27.20" shape="113.60,1.60 86.40,1.60"/>
    </edge>
    <edge id=":J3_9" function="internal">
        <lane id=":J3_9_0" index="0" speed="10.36" length="24.51" shape="113.60,1.60 106.95,0.65 102.20,-2.20 99.35,-6.95 98.40,-13.60"/>
    </edge>
    <edge id=":J3_10" function="internal">
        <lane id=":J3_10_0" index="0" speed="6.51" length="9.03" shape="108.00,-13.60 108.35,-11.15 109.40,-9.40 111.15,-8.35 113.60,-8.00"/>
    </edge>
    <edge id=":J3_11" function="internal">
        <lane id=":J3_11_0" index="0" speed="13.89" length="27.20" shape="108.00,-13.60 108.00,13.60"/>
        <lane id=":J3_11_1" index="1" speed="13.89" length="27.20" shape="104.80,-13.60 104.80,13.60"/>
        <lane id=":J3_11_2" index="2" speed="13.89" length="27.20" shape="101.60,-13.60 101.60,13.60"/>
    </edge>
    <edge id=":J3_14" function="internal">
        <lane id=":J3_14_0" index="0" speed="10.36" length="5.01" shape="101.60,-13.60 100.89,-8.64"/>
    </edge>
    <edge id=":J3_21" function="internal">
        <lane id=":J3_21_0" index="0" speed="10.36" length="19.50" shape="100.89,-8.64 100.65,-6.95 97.80,-2.20 93.05,0.65 86.40,1.60"/>
    </edge>
    <edge id=":J3_15" function="internal">
        <lane id=":J3_15_0" index="0" speed="6.51" length="9.03" shape="86.40,-8.00 88.85,-8.35 90.60,-9.40 91.65,-11.15 92.00,-13.60"/>
    </edge>
    <edge id=":J3_16" function="internal">
        <lane id=":J3_16_0" index="0" speed="13.89" length="27.20" shape="86.40,-8.00 113.60,-8.00"/>
        <lane id=":J3_16_1" index="1" speed="13.89" length="27.20" shape="86.40,-4.80 113.60,-4.80"/>
        <lane id=":J3_16_2" index="2" speed="13.89" length="27.20" shape="86.40,-1.60 113.60,-1.60"/>
    </edge>
    <edge id=":J3_19" function="internal">
        <lane id=":J3_19_0" index="0" speed="10.36" length="24.51" shape="86.40,-1.60 93.05,-0.65 97.80,2.20 100.65,6.95 101.60,13.60"/>
    </edge>
    <edge id=":J4_0" function="internal">
        <lane id=":J4_0_0" index="0" speed="6.51" length="9.03" shape="192.00,13.60 191.65,11.15 190.60,9.40 188.85,8.35 186.40,8.00"/>
    </edge>
    <edge id=":J4_1" function="internal">
        <lane id=":J4_1_0" index="0" speed="13.89" length="27.20" shape="192.00,13.60 192.00,-13.60"/>
        <lane id=":J4_1_1" index="1" speed="13.89" length="27.20" shape="195.20,13.60 195.20,-13.60"/>
        <lane id=":J4_1_2" index="2" speed="13.89" length="27.20" shape="198.40,13.60 198.40,-13.60"/>
    </edge>
    <edge id=":J4_4" function="internal">
        <lane id=":J4_4_0" index="0" speed="10.36" length="5.01" shape="198.40,13.60 199.11,8.64"/>
    </edge>
    <edge id=":J4_20" function="internal">
        <lane id=":J4_20_0" index="0" speed="10.36" length="19.50" shape="199.11,8.64 199.35,6.95 202.20,2.20 206.95,-0.65 213.60,-1.60"/>
    </edge>
    <edge id=":J4_5" function="internal">
        <lane id=":J4_5_0" index="0" speed="6.51" length="9.03" shape="213.60,8.00 211.15,8.35 209.40,9.40 208.35,11.15 208.00,13.60"/>
    </edge>
    <edge id=":J4_6" function="internal">
        <lane id=":J4_6_0" index="0" speed="13.89" length="27.20" shape="213.60,8.00 186.40,8.00"/>
        <lane id=":J4_6_1" index="1" speed="13.89" length="27.20" shape="213.60,4.80 186.40,4.80"/>
        <lane id=":J4_6_2" index="2" speed="13.89" length="27.20" shape="213.60,1.60 186.40,1.60"/>
    </edge>
    <edge id=":J4_9" function="internal">
        <lane id=":J4_9_0" index="0" speed="10.36" length="24.51" shape="213.60,1.60 206.95,0.65 202.20,-2.20 199.35,-6.95 198.40,-13.60"/>
    </edge>
    <edge id=":J4_10" function="internal">
        <lane id=":J4_10_0" index="0" speed="6.51" length="9.03" shape="208.00,-13.60 208.35,-11.15 209.40,-9.40 211.15,-8.35 213.60,-8.00"/>
    </edge>
    <edge id=":J4_11" function="internal">
        <lane id=":J4_11_0" index="0" speed="13.89" length="27.20" shape="208.00,-13.60 208.00,13.60"/>
        <lane id=":J4_11_1" index="1" speed="13.89" length="27.20" shape="204.80,-13.60 204.80,13.60"/>
        <lane id=":J4_11_2" index="2" speed="13.89" length="27.20" shape="201.60,-13.60 201.60,13.60"/>
    </edge>
    <edge id=":J4_14" function="internal">
        <lane id=":J4_14_0" index="0" speed="10.36" length="5.01" shape="201.60,-13.60 200.89,-8.64"/>
    </edge>
    <edge id=":J4_21" function="internal">
        <lane id=":J4_21_0" index="0" speed="10.36" length="19.50" shape="200.89,-8.64 200.65,-6.95 197.80,-2.20 193.05,0.65 186.40,1.60"/>
    </edge>
    <edge id=":J4_15" function="internal">
        <lane id=":J4_15_0" index="0" speed="6.51" length="9.03" shape="186.40,-8.00 188.85,-8.35 190.60,-9.40 191.65,-11.15 192.00,-13.60"/>
    </edge>
    <edge id=":J4_16" function="internal">
        <lane id=":J4_16_0" index="0" speed="13.89" length="27.20" shape="186.40,-8.00 213.60,-8.00"/>
        <lane id=":J4_16_1" index="1" speed="13.89" length="27.20" shape="186.40,-4.80 213.60,-4.80"/>
        <lane id=":J4_16_2" index="2" speed="13.89" length="27.20" shape="186.40,-1.60 213.60,-1.60"/>
    </edge>
    <edge id=":J4_19" function="internal">
        <lane id=":J4_19_0" index="0" speed="10.36" length="24.51" shape="186.40,-1.60 193.05,-0.65 197.80,2.20 200.65,6.95 201.60,13.60"/>
    </edge>
    <edge id=":J5_0" function="internal">
        <lane id=":J5_0_0" index="0" speed="6.51" length="9.03" shape="292.00,13.60 291.65,11.15 290.60,9.40 288.85,8.35 286.40,8.00"/>
    </edge>
    <edge id=":J5_1" function="internal">
        <lane id=":J5_1_0" index="0" speed="13.89" length="27.20" shape="292.00,13.60 292.00,-13.60"/>
        <lane id=":J5_1_1" index="1" speed="13.89" length="27.20" shape="295.20,13.60 295.20,-13.60"/>
        <lane id=":J5_1_2" index="2" speed="13.89" length="27.20" shape="298.40,13.60 298.40,-13.60"/>
    </edge>
    <edge id=":J5_4" function="internal">
        <lane id=":J5_4_0" index="0" speed="10.36" length="5.01" shape="298.40,13.60 299.11,8.64"/>
    </edge>
    <edge id=":J5_20" function="internal">
        <lane id=":J5_20_0" index="0" speed="10.36" length="19.50" shape="299.11,8.64 299.35,6.95 302.20,2.20 306.95,-0.65 313.60,-1.60"/>
    </edge>
    <edge id=":J5_5" function="internal">
        <lane id=":J5_5_0" index="0" speed="6.51" length="9.03" shape="313.60,8.00 311.15,8.35 309.40,9.40 308.35,11.15 308.00,13.60"/>
    </edge>
    <edge id=":J5_6" function="internal">
        <lane id=":J5_6_0" index="0" speed="13.89" length="27.20" shape="313.60,8.00 286.40,8.00"/>
        <lane id=":J5_6_1" index="1" speed="13.89" length="27.20" shape="313.60,4.80 286.40,4.80"/>
        <lane id=":J5_6_2" index="2" speed="13.89" length="27.20" shape="313.60,1.60 286.40,1.60"/>
    </edge>
    <edge id=":J5_9" function="internal">
        <lane id=":J5_9_0" index="0" speed="10.36" length="24.51" shape="313.60,1.60 306.95,0.65 302.20,-2.20 299.35,-6.95 298.40,-13.60"/>
    </edge>
    <edge id=":J5_10" function="internal">
        <lane id=":J5_10_0" index="0" speed="6.51" length="9.03" shape="308.00,-13.60 308.35,-11.15 309.40,-9.40 311.15,-8.35 313.60,-8.00"/>
    </edge>
    <edge id=":J5_11" function="internal">
        <lane id=":J5_11_0" index="0" speed="13.89" length="27.20" shape="308.00,-13.60 308.00,13.60"/>
        <lane id=":J5_11_1" index="1" speed="13.89" length="27.20" shape="304.80,-13.60 304.80,13.60"/>
        <lane id=":J5_11_2" index="2" speed="13.89" length="27.20" shape="301.60,-13.60 301.60,13.60"/>
    </edge>
    <edge id=":J5_14" function="internal">
        <lane id=":J5_14_0" index="0" speed="10.36" length="5.01" shape="301.60,-13.60 300.89,-8.64"/>
    </edge>
    <edge id=":J5_21" function="internal">
        <lane id=":J5_21_0" index="0" speed="10.36" length="19.50" shape="300.89,-8.64 300.65,-6.95 297.80,-2.20 293.05,0.65 286.40,1.60"/>
    </edge>
    <edge id=":J5_15" function="internal">
        <lane id=":J5_15_0" index="0" speed="6.51" length="9.03" shape="286.40,-8.00 288.85,-8.35 290.60,-9.40 291.65,-11.15 292.00,-13.60"/>
    </edge>
    <edge id=":J5_16" function="internal">
        <lane id=":J5_16_0" index="0" speed="13.89" length="27.20" shape="286.40,-8.00 313.60,-8.00"/>
        <lane id=":J5_16_1" index="1" speed="13.89" length="27.20" shape="286.40,-4.80 313.60,-4.80"/>
        <lane id=":J5_16_2" index="2" speed="13.89" length="27.20" shape="286.40,-1.60 313.60,-1.60"/>
    </edge>
    <edge id=":J5_19" function="internal">
        <lane id=":J5_19_0" index="0" speed="10.36" length="24.51" shape="286.40,-1.60 293.05,-0.65 297.80,2.20 300.65,6.95 301.60,13.60"/>
    </edge>

    <edge id="-E0" from="J2" to="J1" priority="-1">
        <lane id="-E0_0" index="0" speed="13.89" length="86.40" shape="-13.60,8.00 -100.00,8.00"/>
        <lane id="-E0_1" index="1" speed="13.89" length="86.40" shape="-13.60,4.80 -100.00,4.80"/>
        <lane id="-E0_2" index="2" speed="13.89" length="86.40" shape="-13.60,1.60 -100.00,1.60"/>
    </edge>
    <edge id="-E1" from="J3" to="J2" priority="-1">
        <lane id="-E1_0" index="0" speed="13.89" length="72.80" shape="86.40,8.00 13.60,8.00"/>
        <lane id="-E1_1" index="1" speed="13.89" length="72.80" shape="86.40,4.80 13.60,4.80"/>
        <lane id="-E1_2" index="2" speed="13.89" length="72.80" shape="86.40,1.60 13.60,1.60"/>
    </edge>
    <edge id="-E10" from="J12" to="J4" priority="-1">
        <lane id="-E10_0" index="0" speed="13.89" length="86.40" shape="208.00,-100.00 208.00,-13.60"/>
        <lane id="-E10_1" index="1" speed="13.89" length="86.40" shape="204.80,-100.00 204.80,-13.60"/>
        <lane id="-E10_2" index="2" speed="13.89" length="86.40" shape="201.60,-100.00 201.60,-13.60"/>
    </edge>
    <edge id="-E11" from="J13" to="J5" priority="-1">
        <lane id="-E11_0" index="0" speed="13.89" length="86.40" shape="292.00,100.00 292.00,13.60"/>
        <lane id="-E11_1" index="1" speed="13.89" length="86.40" shape="295.20,100.00 295.20,13.60"/>
        <lane id="-E11_2" index="2" speed="13.89" length="86.40" shape="298.40,100.00 298.40,13.60"/>
    </edge>
    <edge id="-E12" from="J14" to="J5" priority="-1">
        <lane id="-E12_0" index="0" speed="13.89" length="86.40" shape="308.00,-100.00 308.00,-13.60"/>
        <lane id="-E12_1" index="1" speed="13.89" length="86.40" shape="304.80,-100.00 304.80,-13.60"/>
        <lane id="-E12_2" index="2" speed="13.89" length="86.40" shape="301.60,-100.00 301.60,-13.60"/>
    </edge>
    <edge id="-E2" from="J4" to="J3" priority="-1">
        <lane id="-E2_0" index="0" speed="13.89" length="72.80" shape="186.40,8.00 113.60,8.00"/>
        <lane id="-E2_1" index="1" speed="13.89" length="72.80" shape="186.40,4.80 113.60,4.80"/>
        <lane id="-E2_2" index="2" speed="13.89" length="72.80" shape="186.40,1.60 113.60,1.60"/>
    </edge>
    <edge id="-E3" from="J5" to="J4" priority="-1">
        <lane id="-E3_0" index="0" speed="13.89" length="72.80" shape="286.40,8.00 213.60,8.00"/>
        <lane id="-E3_1" index="1" speed="13.89" length="72.80" shape="286.40,4.80 213.60,4.80"/>
        <lane id="-E3_2" index="2" speed="13.89" length="72.80" shape="286.40,1.60 213.60,1.60"/>
    </edge>
    <edge id="-E4" from="J6" to="J5" priority="-1">
        <lane id="-E4_0" index="0" speed="13.89" length="86.40" shape="400.00,8.00 313.60,8.00"/>
        <lane id="-E4_1" index="1" speed="13.89" length="86.40" shape="400.00,4.80 313.60,4.80"/>
        <lane id="-E4_2" index="2" speed="13.89" length="86.40" shape="400.00,1.60 313.60,1.60"/>
    </edge>
    <edge id="-E5" from="J7" to="J2" priority="-1">
        <lane id="-E5_0" index="0" speed="13.89" length="86.40" shape="-8.00,100.00 -8.00,13.60"/>
        <lane id="-E5_1" index="1" speed="13.89" length="86.40" shape="-4.80,100.00 -4.80,13.60"/>
        <lane id="-E5_2" index="2" speed="13.89" length="86.40" shape="-1.60,100.00 -1.60,13.60"/>
    </edge>
    <edge id="-E6" from="J8" to="J2" priority="-1">
        <lane id="-E6_0" index="0" speed="13.89" length="86.40" shape="8.00,-100.00 8.00,-13.60"/>
        <lane id="-E6_1" index="1" speed="13.89" length="86.40" shape="4.80,-100.00 4.80,-13.60"/>
        <lane id="-E6_2" index="2" speed="13.89" length="86.40" shape="1.60,-100.00 1.60,-13.60"/>
    </edge>
    <edge id="-E7" from="J9" to="J3" priority="-1">
        <lane id="-E7_0" index="0" speed="13.89" length="86.40" shape="92.00,100.00 92.00,13.60"/>
        <lane id="-E7_1" index="1" speed="13.89" length="86.40" shape="95.20,100.00 95.20,13.60"/>
        <lane id="-E7_2" index="2" speed="13.89" length="86.40" shape="98.40,100.00 98.40,13.60"/>
    </edge>
    <edge id="-E8" from="J10" to="J3" priority="-1">
        <lane id="-E8_0" index="0" speed="13.89" length="86.40" shape="108.00,-100.00 108.00,-13.60"/>
        <lane id="-E8_1" index="1" speed="13.89" length="86.40" shape="104.80,-100.00 104.80,-13.60"/>
        <lane id="-E8_2" index="2" speed="13.89" length="86.40" shape="101.60,-100.00 101.60,-13.60"/>
    </edge>
    <edge id="-E9" from="J11" to="J4" priority="-1">
        <lane id="-E9_0" index="0" speed="13.89" length="86.40" shape="192.00,100.00 192.00,13.60"/>
        <lane id="-E9_1" index="1" speed="13.89" length="86.40" shape="195.20,100.00 195.20,13.60"/>
        <lane id="-E9_2" index="2" speed="13.89" length="86.40" shape="198.40,100.00 198.40,13.60"/>
    </edge>
    <edge id="E0" from="J1" to="J2" priority="-1">
        <lane id="E0_0" index="0" speed="13.89" length="86.40" shape="-100.00,-8.00 -13.60,-8.00"/>
        <lane id="E0_1" index="1" speed="13.89" length="86.40" shape="-100.00,-4.80 -13.60,-4.80"/>
        <lane id="E0_2" index="2" speed="13.89" length="86.40" shape="-100.00,-1.60 -13.60,-1.60"/>
    </edge>
    <edge id="E1" from="J2" to="J3" priority="-1">
        <lane id="E1_0" index="0" speed="13.89" length="72.80" shape="13.60,-8.00 86.40,-8.00"/>
        <lane id="E1_1" index="1" speed="13.89" length="72.80" shape="13.60,-4.80 86.40,-4.80"/>
        <lane id="E1_2" index="2" speed="13.89" length="72.80" shape="13.60,-1.60 86.40,-1.60"/>
    </edge>
    <edge id="E10" from="J4" to="J12" priority="-1">
        <lane id="E10_0" index="0" speed="13.89" length="86.40" shape="192.00,-13.60 192.00,-100.00"/>
        <lane id="E10_1" index="1" speed="13.89" length="86.40" shape="195.20,-13.60 195.20,-100.00"/>
        <lane id="E10_2" index="2" speed="13.89" length="86.40" shape="198.40,-13.60 198.40,-100.00"/>
    </edge>
    <edge id="E11" from="J5" to="J13" priority="-1">
        <lane id="E11_0" index="0" speed="13.89" length="86.40" shape="308.00,13.60 308.00,100.00"/>
        <lane id="E11_1" index="1" speed="13.89" length="86.40" shape="304.80,13.60 304.80,100.00"/>
        <lane id="E11_2" index="2" speed="13.89" length="86.40" shape="301.60,13.60 301.60,100.00"/>
    </edge>
    <edge id="E12" from="J5" to="J14" priority="-1">
        <lane id="E12_0" index="0" speed="13.89" length="86.40" shape="292.00,-13.60 292.00,-100.00"/>
        <lane id="E12_1" index="1" speed="13.89" length="86.40" shape="295.20,-13.60 295.20,-100.00"/>
        <lane id="E12_2" index="2" speed="13.89" length="86.40" shape="298.40,-13.60 298.40,-100.00"/>
    </edge>
    <edge id="E2" from="J3" to="J4" priority="-1">
        <lane id="E2_0" index="0" speed="13.89" length="72.80" shape="113.60,-8.00 186.40,-8.00"/>
        <lane id="E2_1" index="1" speed="13.89" length="72.80" shape="113.60,-4.80 186.40,-4.80"/>
        <lane id="E2_2" index="2" speed="13.89" length="72.80" shape="113.60,-1.60 186.40,-1.60"/>
    </edge>
    <edge id="E3" from="J4" to="J5" priority="-1">
        <lane id="E3_0" index="0" speed="13.89" length="72.80" shape="213.60,-8.00 286.40,-8.00"/>
        <lane id="E3_1" index="1" speed="13.89" length="72.80" shape="213.60,-4.80 286.40,-4.80"/>
        <lane id="E3_2" index="2" speed="13.89" length="72.80" shape="213.60,-1.60 286.40,-1.60"/>
    </edge>
    <edge id="E4" from="J5" to="J6" priority="-1">
        <lane id="E4_0" index="0" speed="13.89" length="86.40" shape="313.60,-8.00 400.00,-8.00"/>
        <lane id="E4_1" index="1" speed="13.89" length="86.40" shape="313.60,-4.80 400.00,-4.80"/>
        <lane id="E4_2" index="2" speed="13.89" length="86.40" shape="313.60,-1.60 400.00,-1.60"/>
    </edge>
    <edge id="E5" from="J2" to="J7" priority="-1">
        <lane id="E5_0" index="0" speed="13.89" length="86.40" shape="8.00,13.60 8.00,100.00"/>
        <lane id="E5_1" index="1" speed="13.89" length="86.40" shape="4.80,13.60 4.80,100.00"/>
        <lane id="E5_2" index="2" speed="13.89" length="86.40" shape="1.60,13.60 1.60,100.00"/>
    </edge>
    <edge id="E6" from="J2" to="J8" priority="-1">
        <lane id="E6_0" index="0" speed="13.89" length="86.40" shape="-8.00,-13.60 -8.00,-100.00"/>
        <lane id="E6_1" index="1" speed="13.89" length="86.40" shape="-4.80,-13.60 -4.80,-100.00"/>
        <lane id="E6_2" index="2" speed="13.89" length="86.40" shape="-1.60,-13.60 -1.60,-100.00"/>
    </edge>
    <edge id="E7" from="J3" to="J9" priority="-1">
        <lane id="E7_0" index="0" speed="13.89" length="86.40" shape="108.00,13.60 108.00,100.00"/>
        <lane id="E7_1" index="1" speed="13.89" length="86.40" shape="104.80,13.60 104.80,100.00"/>
        <lane id="E7_2" index="2" speed="13.89" length="86.40" shape="101.60,13.60 101.60,100.00"/>
    </edge>
    <edge id="E8" from="J3" to="J10" priority="-1">
        <lane id="E8_0" index="0" speed="13.89" length="86.40" shape="92.00,-13.60 92.00,-100.00"/>
        <lane id="E8_1" index="1" speed="13.89" length="86.40" shape="95.20,-13.60 95.20,-100.00"/>
        <lane id="E8_2" index="2" speed="13.89" length="86.40" shape="98.40,-13.60 98.40,-100.00"/>
    </edge>
    <edge id="E9" from="J4" to="J11" priority="-1">
        <lane id="E9_0" index="0" speed="13.89" length="86.40" shape="208.00,13.60 208.00,100.00"/>
        <lane id="E9_1" index="1" speed="13.89" length="86.40" shape="204.80,13.60 204.80,100.00"/>
        <lane id="E9_2" index="2" speed="13.89" length="86.40" shape="201.60,13.60 201.60,100.00"/>
    </edge>

    <junction id="J1" type="dead_end" x="-100.00" y="0.00" incLanes="-E0_0 -E0_1 -E0_2" intLanes="" shape="-100.00,0.00 -100.00,9.60 -100.00,0.00"/>
    <junction id="J10" type="dead_end" x="100.00" y="-100.00" incLanes="E8_0 E8_1 E8_2" intLanes="" shape="100.00,-100.00 90.40,-100.00 100.00,-100.00"/>
    <junction id="J11" type="dead_end" x="200.00" y="100.00" incLanes="E9_0 E9_1 E9_2" intLanes="" shape="200.00,100.00 209.60,100.00 200.00,100.00"/>
    <junction id="J12" type="dead_end" x="200.00" y="-100.00" incLanes="E10_0 E10_1 E10_2" intLanes="" shape="200.00,-100.00 190.40,-100.00 200.00,-100.00"/>
    <junction id="J13" type="dead_end" x="300.00" y="100.00" incLanes="E11_0 E11_1 E11_2" intLanes="" shape="300.00,100.00 309.60,100.00 300.00,100.00"/>
    <junction id="J14" type="dead_end" x="300.00" y="-100.00" incLanes="E12_0 E12_1 E12_2" intLanes="" shape="300.00,-100.00 290.40,-100.00 300.00,-100.00"/>
    <junction id="J2" type="priority" x="0.00" y="0.00" incLanes="-E5_0 -E5_1 -E5_2 -E1_0 -E1_1 -E1_2 -E6_0 -E6_1 -E6_2 E0_0 E0_1 E0_2" intLanes=":J2_0_0 :J2_1_0 :J2_1_1 :J2_1_2 :J2_20_0 :J2_5_0 :J2_6_0 :J2_6_1 :J2_6_2 :J2_9_0 :J2_10_0 :J2_11_0 :J2_11_1 :J2_11_2 :J2_21_0 :J2_15_0 :J2_16_0 :J2_16_1 :J2_16_2 :J2_19_0" shape="-9.60,13.60 9.60,13.60 10.04,11.38 10.60,10.60 11.38,10.04 12.38,9.71 13.60,9.60 13.60,-9.60 11.38,-10.04 10.60,-10.60 10.04,-11.38 9.71,-12.38 9.60,-13.60 -9.60,-13.60 -10.04,-11.38 -10.60,-10.60 -11.38,-10.04 -12.38,-9.71 -13.60,-9.60 -13.60,9.60 -11.38,10.04 -10.60,10.60 -10.04,11.38 -9.71,12.38">
        <request index="0"  response="00000000000000000000" foes="00000000000111000000" cont="0"/>
        <request index="1"  response="00000000000000000000" foes="11111100001111000000" cont="0"/>
        <request index="2"  response="00000000000000000000" foes="11111100001111000000" cont="0"/>
        <request index="3"  response="00000000000000000000" foes="11111100001111000000" cont="0"/>
        <request index="4"  response="00000011100000000000" foes="11110011101111000000" cont="1"/>
        <request index="5"  response="00000011100000000000" foes="00000011100000000000" cont="0"/>
        <request index="6"  response="00000111100000011111" foes="10000111100000011111" cont="0"/>
        <request index="7"  response="00000111100000011111" foes="10000111100000011111" cont="0"/>
        <request index="8"  response="00000111100000011111" foes="10000111100000011111" cont="0"/>
        <request index="9"  response="01110111100000011110" foes="01110111100000011110" cont="0"/>
        <request index="10" response="00000000000000000000" foes="01110000000000000000" cont="0"/>
        <request index="11" response="00000000000000000000" foes="11110000001111110000" cont="0"/>
        <request index="12" response="00000000000000000000" foes="11110000001111110000" cont="0"/>
        <request index="13" response="00000000000000000000" foes="11110000001111110000" cont="0"/>
        <request index="14" response="00000000000000001110" foes="11110000001111001110" cont="1"/>
        <request index="15" response="00000000000000001110" foes="00000000000000001110" cont="0"/>
        <request index="16" response="00000111110000011110" foes="00000111111000011110" cont="0"/>
        <request index="17" response="00000111110000011110" foes="00000111111000011110" cont="0"/>
        <request index="18" response="00000111110000011110" foes="00000111111000011110" cont="0"/>
        <request index="19" response="00000111100111011110" foes="00000111100111011110" cont="0"/>
    </junction>
    <junction id="J3" type="priority" x="100.00" y="0.00" incLanes="-E7_0 -E7_1 -E7_2 -E2_0 -E2_1 -E2_2 -E8_0 -E8_1 -E8_2 E1_0 E1_1 E1_2" intLanes=":J3_0_0 :J3_1_0 :J3_1_1 :J3_1_2 :J3_20_0 :J3_5_0 :J3_6_0 :J3_6_1 :J3_6_2 :J3_9_0 :J3_10_0 :J3_11_0 :J3_11_1 :J3_11_2 :J3_21_0 :J3_15_0 :J3_16_0 :J3_16_1 :J3_16_2 :J3_19_0" shape="90.40,13.60 109.60,13.60 110.04,11.38 110.60,10.60 111.38,10.04 112.38,9.71 113.60,9.60 113.60,-9.60 111.38,-10.04 110.60,-10.60 110.04,-11.38 109.71,-12.38 109.60,-13.60 90.40,-13.60 89.96,-11.38 89.40,-10.60 88.62,-10.04 87.62,-9.71 86.40,-9.60 86.40,9.60 88.62,10.04 89.40,10.60 89.96,11.38 90.29,12.38">
        <request index="0"  response="00000000000000000000" foes="00000000000111000000" cont="0"/>
        <request index="1"  response="00000000000000000000" foes="11111100001111000000" cont="0"/>
        <request index="2"  response="00000000000000000000" foes="11111100001111000000" cont="0"/>
        <request index="3"  response="00000000000000000000" foes="11111100001111000000" cont="0"/>
        <request index="4"  response="00000011100000000000" foes="11110011101111000000" cont="1"/>
        <request index="5"  response="00000011100000000000" foes="00000011100000000000" cont="0"/>
        <request index="6"  response="00000111100000011111" foes="10000111100000011111" cont="0"/>
        <request index="7"  response="00000111100000011111" foes="10000111100000011111" cont="0"/>
        <request index="8"  response="00000111100000011111" foes="10000111100000011111" cont="0"/>
        <request index="9"  response="01110111100000011110" foes="01110111100000011110" cont="0"/>
        <request index="10" response="00000000000000000000" foes="01110000000000000000" cont="0"/>
        <request index="11" response="00000000000000000000" foes="11110000001111110000" cont="0"/>
        <request index="12" response="00000000000000000000" foes="11110000001111110000" cont="0"/>
        <request index="13" response="00000000000000000000" foes="11110000001111110000" cont="0"/>
        <request index="14" response="00000000000000001110" foes="11110000001111001110" cont="1"/>
        <request index="15" response="00000000000000001110" foes="00000000000000001110" cont="0"/>
        <request index="16" response="00000111110000011110" foes="00000111111000011110" cont="0"/>
        <request index="17" response="00000111110000011110" foes="00000111111000011110" cont="0"/>
        <request index="18" response="00000111110000011110" foes="00000111111000011110" cont="0"/>
        <request index="19" response="00000111100111011110" foes="00000111100111011110" cont="0"/>
    </junction>