<?xml version="1.0" encoding="UTF-8"?>

<!-- generated on 2023-05-05 10:48:17 by Eclipse SUMO netedit Version 1.16.0
<configuration xmlns:xsi="http://www.w3.org/2001/XMLSchema-instance" xsi:noNamespaceSchemaLocation="http://sumo.dlr.de/xsd/netconvertConfiguration.xsd">

    <input>
        <sumo-net-file value=".\roundabout.net.xml"/>
    </input>

    <output>
        <output-file value=".\roundabout.net.xml"/>
    </output>

    <processing>
        <geometry.min-radius.fix.railways value="false"/>
        <geometry.max-grade.fix value="false"/>
        <offset.disable-normalization value="true"/>
        <lefthand value="0"/>
    </processing>

    <junctions>
        <no-turnarounds value="true"/>
        <junctions.corner-detail value="5"/>
        <junctions.limit-turn-speed value="5.50"/>
        <rectangular-lane-cut value="0"/>
    </junctions>

    <pedestrian>
        <walkingareas value="0"/>
    </pedestrian>

</configuration>
-->

<net version="1.16" junctionCornerDetail="5" limitTurnSpeed="5.50" xmlns:xsi="http://www.w3.org/2001/XMLSchema-instance" xsi:noNamespaceSchemaLocation="http://sumo.dlr.de/xsd/net_file.xsd">

    <location netOffset="0.00,0.00" convBoundary="-300.00,-300.00,300.00,300.00" origBoundary="-10000000000.00,-10000000000.00,10000000000.00,10000000000.00" projParameter="!"/>

    <edge id=":J11_0" function="internal">
        <lane id=":J11_0_0" index="0" speed="7.12" length="8.67" shape="-7.97,62.53 -8.30,60.44 -9.28,58.73 -10.91,57.40 -13.20,56.46"/>
        <lane id=":J11_0_1" index="1" speed="8.74" length="13.47" shape="-4.77,62.53 -5.29,59.33 -6.83,56.70 -9.40,54.66 -13.00,53.18"/>
        <lane id=":J11_0_2" index="2" speed="10.10" length="18.26" shape="-1.57,62.53 -2.27,58.22 -4.38,54.68 -7.89,51.91 -12.80,49.91"/>
    </edge>
    <edge id=":J11_3" function="internal">
        <lane id=":J11_3_0" index="0" speed="7.12" length="8.66" shape="13.26,56.47 10.97,57.41 9.34,58.74 8.36,60.44 8.03,62.53"/>
        <lane id=":J11_3_1" index="1" speed="7.94" length="10.97" shape="13.26,56.47 9.57,57.76 6.94,59.20 5.36,60.79 4.83,62.53"/>
        <lane id=":J11_3_2" index="2" speed="8.75" length="13.51" shape="13.26,56.47 8.17,58.10 4.54,59.66 2.36,61.13 1.63,62.53"/>
    </edge>
    <edge id=":J11_6" function="internal">
        <lane id=":J11_6_0" index="0" speed="13.89" length="26.69" shape="13.26,56.47 5.55,58.52 0.03,59.21 -5.49,58.52 -13.20,56.46"/>
        <lane id=":J11_6_1" index="1" speed="13.89" length="26.69" shape="13.07,53.20 5.47,55.22 0.03,55.89 -5.41,55.21 -13.00,53.18"/>
        <lane id=":J11_6_2" index="2" speed="13.89" length="26.69" shape="12.88,49.92 5.39,51.92 0.04,52.58 -5.32,51.91 -12.80,49.91"/>
    </edge>
    <edge id=":J12_0" function="internal">
        <lane id=":J12_0_0" index="0" speed="7.13" length="8.66" shape="62.59,8.00 60.51,8.33 58.80,9.31 57.48,10.94 56.53,13.23"/>
        <lane id=":J12_0_1" index="1" speed="8.74" length="13.46" shape="62.59,4.80 59.40,5.32 56.78,6.86 54.73,9.44 53.25,13.04"/>
        <lane id=":J12_0_2" index="2" speed="10.11" length="18.26" shape="62.59,1.60 58.29,2.30 54.76,4.41 51.99,7.93 49.98,12.85"/>
    </edge>
    <edge id=":J12_3" function="internal">
        <lane id=":J12_3_0" index="0" speed="7.13" length="8.66" shape="56.53,-13.23 57.48,-10.94 58.80,-9.31 60.51,-8.33 62.59,-8.00"/>
        <lane id=":J12_3_1" index="1" speed="7.95" length="10.97" shape="56.53,-13.23 57.82,-9.54 59.27,-6.91 60.86,-5.33 62.59,-4.80"/>
        <lane id=":J12_3_2" index="2" speed="8.76" length="13.50" shape="56.53,-13.23 58.17,-8.14 59.73,-4.51 61.20,-2.33 62.59,-1.60"/>
    </edge>
    <edge id=":J12_6" function="internal">
        <lane id=":J12_6_0" index="0" speed="13.89" length="26.70" shape="56.53,-13.23 58.60,-5.52 59.29,-0.00 58.60,5.52 56.53,13.23"/>
        <lane id=":J12_6_1" index="1" speed="13.89" length="26.70" shape="53.25,-13.04 55.29,-5.44 55.97,-0.00 55.29,5.44 53.25,13.04"/>
        <lane id=":J12_6_2" index="2" speed="13.89" length="26.70" shape="49.98,-12.85 51.99,-5.36 52.66,-0.00 51.99,5.36 49.98,12.85"/>
    </edge>
    <edge id=":J13_0" function="internal">
        <lane id=":J13_0_0" index="0" speed="7.12" length="8.66" shape="8.03,-62.53 8.36,-60.44 9.34,-58.74 10.97,-57.41 13.26,-56.47"/>
        <lane id=":J13_0_1" index="1" speed="8.74" length="13.46" shape="4.83,-62.53 5.34,-59.34 6.89,-56.71 9.46,-54.67 13.07,-53.20"/>
        <lane id=":J13_0_2" index="2" speed="10.10" length="18.27" shape="1.63,-62.53 2.33,-58.23 4.44,-54.69 7.96,-51.92 12.88,-49.92"/>
    </edge>
    <edge id=":J13_3" function="internal">
        <lane id=":J13_3_0" index="0" speed="7.12" length="8.67" shape="-13.20,-56.46 -10.91,-57.40 -9.28,-58.73 -8.30,-60.44 -7.97,-62.53"/>
        <lane id=":J13_3_1" index="1" speed="7.94" length="10.98" shape="-13.20,-56.46 -9.51,-57.75 -6.88,-59.19 -5.30,-60.78 -4.77,-62.53"/>
        <lane id=":J13_3_2" index="2" speed="8.75" length="13.51" shape="-13.20,-56.46 -8.11,-58.09 -4.48,-59.65 -2.30,-61.13 -1.57,-62.53"/>
    </edge>
    <edge id=":J13_6" function="internal">
        <lane id=":J13_6_0" index="0" speed="13.89" length="26.69" shape="-13.20,-56.46 -5.49,-58.52 0.03,-59.21 5.55,-58.52 13.26,-56.47"/>
        <lane id=":J13_6_1" index="1" speed="13.89" length="26.69" shape="-13.00,-53.18 -5.41,-55.21 0.03,-55.89 5.47,-55.22 13.07,-53.20"/>
        <lane id=":J13_6_2" index="2" speed="13.89" length="26.69" shape="-12.80,-49.91 -5.32,-51.91 0.04,-52.58 5.39,-51.92 12.88,-49.92"/>
    </edge>
    <edge id=":J14_0" function="internal">
        <lane id=":J14_0_0" index="0" speed="7.12" length="8.66" shape="-56.41,13.23 -57.35,10.94 -58.68,9.31 -60.38,8.33 -62.47,8.00"/>
        <lane id=":J14_0_1" index="1" speed="7.94" length="10.98" shape="-56.41,13.23 -57.70,9.54 -59.14,6.91 -60.73,5.33 -62.47,4.80"/>
        <lane id=":J14_0_2" index="2" speed="8.75" length="13.51" shape="-56.41,13.23 -58.04,8.14 -59.60,4.51 -61.07,2.33 -62.47,1.60"/>
    </edge>
    <edge id=":J14_3" function="internal">
        <lane id=":J14_3_0" index="0" speed="13.89" length="26.70" shape="-56.41,13.23 -58.46,5.52 -59.15,-0.00 -58.46,-5.52 -56.41,-13.23"/>
        <lane id=":J14_3_1" index="1" speed="13.89" length="26.70" shape="-53.13,13.04 -55.16,5.44 -55.84,-0.00 -55.16,-5.44 -53.13,-13.04"/>
        <lane id=":J14_3_2" index="2" speed="13.89" length="26.70" shape="-49.86,12.85 -51.86,5.36 -52.52,0.00 -51.86,-5.36 -49.86,-12.85"/>
    </edge>
    <edge id=":J14_6" function="internal">
        <lane id=":J14_6_0" index="0" speed="7.12" length="8.66" shape="-62.47,-8.00 -60.38,-8.33 -58.68,-9.31 -57.35,-10.94 -56.41,-13.23"/>
        <lane id=":J14_6_1" index="1" speed="8.74" length="13.47" shape="-62.47,-4.80 -59.27,-5.32 -56.65,-6.86 -54.60,-9.44 -53.13,-13.04"/>
        <lane id=":J14_6_2" index="2" speed="10.10" length="18.27" shape="-62.47,-1.60 -58.17,-2.30 -54.63,-4.41 -51.86,-7.93 -49.86,-12.85"/>
    </edge>

    <edge id="-E00" from="J14" to="J0" priority="-1">
        <lane id="-E00_0" index="0" speed="13.89" length="237.53" shape="-62.47,8.00 -300.00,8.00"/>
        <lane id="-E00_1" index="1" speed="13.89" length="237.53" shape="-62.47,4.80 -300.00,4.80"/>
        <lane id="-E00_2" index="2" speed="13.89" length="237.53" shape="-62.47,1.60 -300.00,1.60"/>
    </edge>
    <edge id="-E1" from="J2" to="J12" priority="-1">
        <lane id="-E1_0" index="0" speed="13.89" length="237.41" shape="300.00,8.00 62.59,8.00"/>
        <lane id="-E1_1" index="1" speed="13.89" length="237.41" shape="300.00,4.80 62.59,4.80"/>
        <lane id="-E1_2" index="2" speed="13.89" length="237.41" shape="300.00,1.60 62.59,1.60"/>
    </edge>
    <edge id="-E2" from="J3" to="J11" priority="-1">
        <lane id="-E2_0" index="0" speed="13.89" length="237.47" shape="-8.00,300.00 -7.97,62.53"/>
        <lane id="-E2_1" index="1" speed="13.89" length="237.47" shape="-4.80,300.00 -4.77,62.53"/>
        <lane id="-E2_2" index="2" speed="13.89" length="237.47" shape="-1.60,300.00 -1.57,62.53"/>
    </edge>
    <edge id="-E3" from="J4" to="J13" priority="-1">
        <lane id="-E3_0" index="0" speed="13.89" length="237.47" shape="8.00,-300.00 8.03,-62.53"/>
        <lane id="-E3_1" index="1" speed="13.89" length="237.47" shape="4.80,-300.00 4.83,-62.53"/>
        <lane id="-E3_2" index="2" speed="13.89" length="237.47" shape="1.60,-300.00 1.63,-62.53"/>
    </edge>
    <edge id="E0" from="J0" to="J14" priority="-1">
        <lane id="E0_0" index="0" speed="13.89" length="237.53" shape="-300.00,-8.00 -62.47,-8.00"/>
        <lane id="E0_1" index="1" speed="13.89" length="237.53" shape="-300.00,-4.80 -62.47,-4.80"/>
        <lane id="E0_2" index="2" speed="13.89" length="237.53" shape="-300.00,-1.60 -62.47,-1.60"/>
    </edge>
    <edge id="E10" from="J12" to="J2" priority="-1">
        <lane id="E10_0" index="0" speed="13.89" length="237.41" shape="62.59,-8.00 300.00,-8.00"/>
        <lane id="E10_1" index="1" speed="13.89" length="237.41" shape="62.59,-4.80 300.00,-4.80"/>
        <lane id="E10_2" index="2" speed="13.89" length="237.41" shape="62.59,-1.60 300.00,-1.60"/>
    </edge>
    <edge id="E11" from="J11" to="J14" priority="-1" shape="0.03,50.00 -5.57,49.68 -11.09,48.74 -16.48,47.19 -21.65,45.04 -26.56,42.33 -31.13,39.08 -35.31,35.34 -39.04,31.16 -42.28,26.59 -44.99,21.69 -47.14,16.51 -48.69,11.12 -49.63,5.60 -49.94,0.00">
        <lane id="E11_0" index="0" speed="13.89" length="59.68" shape="-13.20,56.46 -19.13,54.75 -25.13,52.26 -30.82,49.11 -36.13,45.34 -40.98,41.00 -45.31,36.15 -49.06,30.85 -52.21,25.17 -54.70,19.16 -56.41,13.23"/>
        <lane id="E11_1" index="1" speed="13.89" length="59.68" shape="-13.00,53.18 -18.07,51.73 -23.74,49.37 -29.12,46.40 -34.13,42.84 -38.71,38.74 -42.80,34.16 -46.35,29.15 -49.32,23.78 -51.68,18.10 -53.13,13.04"/>
        <lane id="E11_2" index="2" speed="13.89" length="59.68" shape="-12.80,49.91 -17.01,48.70 -22.35,46.48 -27.41,43.69 -32.13,40.33 -36.44,36.47 -40.29,32.16 -43.64,27.44 -46.43,22.39 -48.65,17.04 -49.86,12.85"/>
    </edge>
    <edge id="E20" from="J11" to="J3" priority="-1">
        <lane id="E20_0" index="0" speed="13.89" length="237.47" shape="8.03,62.53 8.00,300.00"/>
        <lane id="E20_1" index="1" speed="13.89" length="237.47" shape="4.83,62.53 4.80,300.00"/>
        <lane id="E20_2" index="2" speed="13.89" length="237.47" shape="1.63,62.53 1.60,300.00"/>
    </edge>
    <edge id="E30" from="J13" to="J4" priority="-1">
        <lane id="E30_0" index="0" speed="13.89" length="237.47" shape="-7.97,-62.53 -8.00,-300.00"/>
        <lane id="E30_1" index="1" speed="13.89" length="237.47" shape="-4.77,-62.53 -4.80,-300.00"/>
        <lane id="E30_2" index="2" speed="13.89" length="237.47" shape="-1.57,-62.53 -1.60,-300.00"/>
    </edge>
    <edge id="E7" from="J12" to="J11" priority="-1" shape="50.06,0.00 49.75,5.60 48.81,11.13 47.25,16.52 45.10,21.70 42.39,26.61 39.14,31.18 35.40,35.37 31.22,39.10 26.65,42.35 21.73,45.06 16.55,47.20 11.16,48.75 5.63,49.69 0.03,50.00">
        <lane id="E7_0" index="0" speed="13.89" length="59.73" shape="56.53,13.23 54.81,19.17 52.32,25.18 49.17,30.87 45.40,36.18 41.07,41.04 36.22,45.36 30.91,49.14 25.20,52.28 19.19,54.76 13.26,56.47"/>
        <lane id="E7_1" index="1" speed="13.89" length="59.73" shape="53.25,13.04 51.79,18.11 49.43,23.79 46.46,29.17 42.90,34.18 38.80,38.77 34.22,42.86 29.21,46.42 23.81,49.39 18.13,51.74 13.07,53.20"/>
        <lane id="E7_2" index="2" speed="13.89" length="59.73" shape="49.98,12.85 48.76,17.05 46.54,22.40 43.75,27.46 40.39,32.18 36.53,36.50 32.22,40.35 27.50,43.71 22.42,46.50 17.08,48.71 12.88,49.92"/>
    </edge>
    <edge id="E8" from="J13" to="J12" priority="-1" shape="0.03,-50.00 5.63,-49.69 11.16,-48.75 16.55,-47.20 21.73,-45.06 26.65,-42.35 31.22,-39.10 35.40,-35.37 39.14,-31.18 42.39,-26.61 45.10,-21.70 47.25,-16.52 48.81,-11.13 49.75,-5.60 50.06,0.00">
        <lane id="E8_0" index="0" speed="13.89" length="59.73" shape="13.26,-56.47 19.19,-54.76 25.20,-52.28 30.91,-49.14 36.22,-45.36 41.07,-41.04 45.40,-36.18 49.17,-30.87 52.32,-25.18 54.81,-19.17 56.53,-13.23"/>
        <lane id="E8_1" index="1" speed="13.89" length="59.73" shape="13.07,-53.20 18.13,-51.74 23.81,-49.39 29.21,-46.42 34.22,-42.86 38.80,-38.77 42.90,-34.18 46.46,-29.17 49.43,-23.79 51.79,-18.11 53.25,-13.04"/>
        <lane id="E8_2" index="2" speed="13.89" length="59.73" shape="12.88,-49.92 17.08,-48.71 22.42,-46.50 27.50,-43.71 32.22,-40.35 36.53,-36.50 40.39,-32.18 43.75,-27.46 46.54,-22.40 48.76,-17.05 49.98,-12.85"/>
    </edge>
    <edge id="E9" from="J14" to="J13" priority="-1" shape="-49.94,0.00 -49.63,-5.60 -48.69,-11.12 -47.14,-16.51 -44.99,-21.69 -42.28,-26.59 -39.04,-31.16 -35.31,-35.34 -31.13,-39.08 -26.56,-42.33 -21.65,-45.04 -16.48,-47.19 -11.09,-48.74 -5.57,-49.68 0.03,-50.00">
        <lane id="E9_0" index="0" speed="13.89" length="59.68" shape="-56.41,-13.23 -54.70,-19.16 -52.21,-25.17 -49.06,-30.85 -45.31,-36.15 -40.98,-41.00 -36.13,-45.34 -30.82,-49.11 -25.13,-52.26 -19.13,-54.75 -13.20,-56.46"/>
        <lane id="E9_1" index="1" speed="13.89" length="59.68" shape="-53.13,-13.04 -51.68,-18.10 -49.32,-23.78 -46.35,-29.15 -42.80,-34.16 -38.71,-38.74 -34.13,-42.84 -29.12,-46.40 -23.74,-49.37 -18.07,-51.73 -13.00,-53.18"/>
        <lane id="E9_2" index="2" speed="13.89" length="59.68" shape="-49.86,-12.85 -48.65,-17.04 -46.43,-22.39 -43.64,-27.44 -40.29,-32.16 -36.44,-36.47 -32.13,-40.33 -27.41,-43.69 -22.35,-46.48 -17.01,-48.70 -12.80,-49.91"/>
    </edge>

    <junction id="J0" type="dead_end" x="-300.00" y="0.00" incLanes="-E00_0 -E00_1 -E00_2" intLanes="" shape="-300.00,0.00 -300.00,9.60 -300.00,0.00"/>
    <junction id="J11" type="priority" x="0.03" y="50.00" incLanes="-E2_0 -E2_1 -E2_2 E7_0 E7_1 E7_2" intLanes=":J11_0_0 :J11_0_1 :J11_0_2 :J11_3_0 :J11_3_1 :J11_3_2 :J11_6_0 :J11_6_1 :J11_6_2" shape="-9.57,62.53 9.63,62.53 10.04,60.55 10.55,59.75 11.26,59.08 12.18,58.54 13.36,58.11 12.78,48.28 7.49,49.75 3.45,50.63 0.04,50.92 -3.38,50.63 -7.42,49.74 -12.71,48.28 -13.30,58.09 -11.20,59.07 -10.49,59.74 -9.98,60.54 -9.67,61.47">
        <request index="0" response="001000000" foes="001000000" cont="0"/>
        <request index="1" response="011000000" foes="011000000" cont="0"/>
        <request index="2" response="111000000" foes="111000000" cont="0"/>
        <request index="3" response="000000000" foes="000000000" cont="0"/>
        <request index="4" response="000000000" foes="000000000" cont="0"/>
        <request index="5" response="000000000" foes="000000000" cont="0"/>
        <request index="6" response="000000000" foes="000000111" cont="0"/>
        <request index="7" response="000000000" foes="000000110" cont="0"/>
        <request index="8" response="000000000" foes="000000100" cont="0"/>
    </junction>
    <junction id="J12" type="priority" x="50.06" y="0.00" incLanes="-E1_0 -E1_1 -E1_2 E8_0 E8_1 E8_2" intLanes=":J12_0_0 :J12_0_1 :J12_0_2 :J12_3_0 :J12_3_1 :J12_3_2 :J12_6_0 :J12_6_1 :J12_6_2" shape="62.59,9.60 62.59,-9.60 60.62,-10.01 59.82,-10.52 59.15,-11.23 58.60,-12.15 58.17,-13.33 48.34,-12.75 49.82,-7.46 50.70,-3.42 51.00,-0.00 50.70,3.42 49.82,7.46 48.34,12.75 58.17,13.33 59.15,11.23 59.82,10.52 60.62,10.01 61.54,9.70">
        <request index="0" response="001000000" foes="001000000" cont="0"/>
        <request index="1" response="011000000" foes="011000000" cont="0"/>
        <request index="2" response="111000000" foes="111000000" cont="0"/>
        <request index="3" response="000000000" foes="000000000" cont="0"/>
        <request index="4" response="000000000" foes="000000000" cont="0"/>
        <request index="5" response="000000000" foes="000000000" cont="0"/>
        <request index="6" response="000000000" foes="000000111" cont="0"/>
        <request index="7" response="000000000" foes="000000110" cont="0"/>
        <request index="8" response="000000000" foes="000000100" cont="0"/>
    </junction>
    <junction id="J13" type="priority" x="0.03" y="-50.00" incLanes="-E3_0 -E3_1 -E3_2 E9_0 E9_1 E9_2" intLanes=":J13_0_0 :J13_0_1 :J13_0_2 :J13_3_0 :J13_3_1 :J13_3_2 :J13_6_0 :J13_6_1 :J13_6_2" shape="12.78,-48.28 13.36,-58.11 11.26,-59.08 10.55,-59.75 10.04,-60.55 9.73,-61.48 9.63,-62.53 -9.57,-62.53 -9.98,-60.54 -10.49,-59.74 -11.20,-59.07 -12.11,-58.53 -13.30,-58.09 -12.71,-48.28 -7.42,-49.74 -3.38,-50.63 0.04,-50.92 3.45,-50.63 7.49,-49.75">
        <request index="0" response="001000000" foes="001000000" cont="0"/>
        <request index="1" response="011000000" foes="011000000" cont="0"/>
        <request index="2" response="111000000" foes="111000000" cont="0"/>
        <request index="3" response="000000000" foes="000000000" cont="0"/>
        <request index="4" response="000000000" foes="000000000" cont="0"/>
        <request index="5" response="000000000" foes="000000000" cont="0"/>
        <request index="6" response="000000000" foes="000000111" cont="0"/>
        <request index="7" response="000000000" foes="000000110" cont="0"/>
        <request index="8" response="000000000" foes="000000100" cont="0"/>
    </junction>
    <junction id="J14" type="priority" x="-49.94" y="0.00" incLanes="E11_0 E11_1 E11_2 E0_0 E0_1 E0_2" intLanes=":J14_0_0 :J14_0_1 :J14_0_2 :J14_3_0 :J14_3_1 :J14_3_2 :J14_6_0 :J14_6_1 :J14_6_2" shape="-58.04,13.33 -48.22,12.75 -49.69,7.46 -50.57,3.42 -50.86,-0.00 -50.57,-3.42 -49.69,-7.46 -48.22,-12.75 -58.04,-13.33 -59.02,-11.23 -59.69,-10.51 -60.49,-10.01 -61.42,-9.70 -62.47,-9.60 -62.47,9.60 -60.49,10.01 -59.69,10.51 -59.02,11.23 -58.48,12.14">
        <request index="0" response="000000000" foes="000000000" cont="0"/>
        <request index="1" response="000000000" foes="000000000" cont="0"/>
        <request index="2" response="000000000" foes="000000000" cont="0"/>
        <request index="3" response="000000000" foes="111000000" cont="0"/>
        <request index="4" response="000000000" foes="110000000" cont="0"/>
        <request index="5" response="000000000" foes="100000000" cont="0"/>
        <request index="6" response="000001000" foes="000001000" cont="0"/>
        <request index="7" response="000011000" foes="000011000" cont="0"/>
        <request index="8" response="000111000" foes="000111000" cont="0"/>
    </junction>
    <junction id="J2" type="dead_end" x="300.00" y="0.00" incLanes="E10_0 E10_1 E10_2" intLanes="" shape="300.00,0.00 300.00,-9.60 300.00,0.00"/>
    <junction id="J3" type="dead_end" x="0.00" y="300.00" incLanes="E20_0 E20_1 E20_2" intLanes="" shape="0.00,300.00 9.60,300.00 0.00,300.00"/>
    <junction id="J4" type="dead_end" x="0.00" y="-300.00" incLanes="E30_0 E30_1 E30_2" intLanes="" shape="0.00,-300.00 -9.60,-300.00 0.00,-300.00"/>

    <connection from="-E1" to="E7" fromLane="0" toLane="0" via=":J12_0_0" dir="r" state="m" visibility="9.00"/>
    <connection from="-E1" to="E7" fromLane="1" toLane="1" via=":J12_0_1" dir="r" state="m" visibility="9.00"/>
    <connection from="-E1" to="E7" fromLane="2" toLane="2" via=":J12_0_2" dir="r" state="m" visibility="9.00"/>
    <connection from="-E2" to="E11" fromLane="0" toLane="0" via=":J11_0_0" dir="r" state="m" visibility="9.00"/>
    <connection from="-E2" to="E11" fromLane="1" toLane="1" via=":J11_0_1" dir="r" state="m" visibility="9.00"/>
    <connection from="-E2" to="E11" fromLane="2" toLane="2" via=":J11_0_2" dir="r" state="m" visibility="9.00"/>
    <connection from="-E3" to="E8" fromLane="0" toLane="0" via=":J13_0_0" dir="r" state="m" visibility="9.00"/>
    <connection from="-E3" to="E8" fromLane="1" toLane="1" via=":J13_0_1" dir="r" state="m" visibility="9.00"/>
    <connection from="-E3" to="E8" fromLane="2" toLane="2" via=":J13_0_2" dir="r" state="m" visibility="9.00"/>
    <connection from="E0" to="E9" fromLane="0" toLane="0" via=":J14_6_0" dir="r" state="m" visibility="9.00"/>
    <connection from="E0" to="E9" fromLane="1" toLane="1" via=":J14_6_1" dir="r" state="m" visibility="9.00"/>
    <connection from="E0" to="E9" fromLane="2" toLane="2" via=":J14_6_2" dir="r" state="m" visibility="9.00"/>
    <connection from="E11" to="-E00" fromLane="0" toLane="0" via=":J14_0_0" dir="r" state="M"/>
    <connection from="E11" to="-E00" fromLane="0" toLane="1" via=":J14_0_1" dir="r" state="M"/>
    <connection from="E11" to="-E00" fromLane="0" toLane="2" via=":J14_0_2" dir="r" state="M"/>
    <connection from="E11" to="E9" fromLane="0" toLane="0" via=":J14_3_0" dir="s" state="M"/>
    <connection from="E11" to="E9" fromLane="1" toLane="1" via=":J14_3_1" dir="s" state="M"/>
    <connection from="E11" to="E9" fromLane="2" toLane="2" via=":J14_3_2" dir="s" state="M"/>
    <connection from="E7" to="E20" fromLane="0" toLane="0" via=":J11_3_0" dir="r" state="M"/>
    <connection from="E7" to="E20" fromLane="0" toLane="1" via=":J11_3_1" dir="r" state="M"/>
    <connection from="E7" to="E20" fromLane="0" toLane="2" via=":J11_3_2" dir="r" state="M"/>
    <connection from="E7" to="E11" fromLane="0" toLane="0" via=":J11_6_0" dir="s" state="M"/>
    <connection from="E7" to="E11" fromLane="1" toLane="1" via=":J11_6_1" dir="s" state="M"/>
    <connection from="E7" to="E11" fromLane="2" toLane="2" via=":J11_6_2" dir="s" state="M"/>
    <connection from="E8" to="E10" fromLane="0" toLane="0" via=":J12_3_0" dir="r" state="M"/>
    <connection from="E8" to="E10" fromLane="0" toLane="1" via=":J12_3_1" dir="r" state="M"/>
    <connection from="E8" to="E10" fromLane="0" toLane="2" via=":J12_3_2" dir="r" state="M"/>
    <connection from="E8" to="E7" fromLane="0" toLane="0" via=":J12_6_0" dir="s" state="M"/>
    <connection from="E8" to="E7" fromLane="1" toLane="1" via=":J12_6_1" dir="s" state="M"/>
    <connection from="E8" to="E7" fromLane="2" toLane="2" via=":J12_6_2" dir="s" state="M"/>
    <connection from="E9" to="E30" fromLane="0" toLane="0" via=":J13_3_0" dir="r" state="M"/>
    <connection from="E9" to="E30" fromLane="0" toLane="1" via=":J13_3_1" dir="r" state="M"/>
    <connection from="E9" to="E30" fromLane="0" toLane="2" via=":J13_3_2" dir="r" state="M"/>
    <connection from="E9" to="E8" fromLane="0" toLane="0" via=":J13_6_0" dir="s" state="M"/>
    <connection from="E9" to="E8" fromLane="1" toLane="1" via=":J13_6_1" dir="s" state="M"/>
    <connection from="E9" to="E8" fromLane="2" toLane="2" via=":J13_6_2" dir="s" state="M"/>

    <connection from=":J11_0" to="E11" fromLane="0" toLane="0" dir="r" state="M"/>
    <connection from=":J11_0" to="E11" fromLane="1" toLane="1" dir="r" state="M"/>
    <connection from=":J11_0" to="E11" fromLane="2" toLane="2" dir="r" state="M"/>
    <connection from=":J11_3" to="E20" fromLane="0" toLane="0" dir="r" state="M"/>
    <connection from=":J11_3" to="E20" fromLane="1" toLane="1" dir="r" state="M"/>
    <connection from=":J11_3" to="E20" fromLane="2" toLane="2" dir="r" state="M"/>
    <connection from=":J11_6" to="E11" fromLane="0" toLane="0" dir="s" state="M"/>
    <connection from=":J11_6" to="E11" fromLane="1" toLane="1" dir="s" state="M"/>
    <connection from=":J11_6" to="E11" fromLane="2" toLane="2" dir="s" state="M"/>
    <connection from=":J12_0" to="E7" fromLane="0" toLane="0" dir="r" state="M"/>
    <connection from=":J12_0" to="E7" fromLane="1" toLane="1" dir="r" state="M"/>
    <connection from=":J12_0" to="E7" fromLane="2" toLane="2" dir="r" state="M"/>
    <connection from=":J12_3" to="E10" fromLane="0" toLane="0" dir="r" state="M"/>
    <connection from=":J12_3" to="E10" fromLane="1" toLane="1" dir="r" state="M"/>
    <connection from=":J12_3" to="E10" fromLane="2" toLane="2" dir="r" state="M"/>
    <connection from=":J12_6" to="E7" fromLane="0" toLane="0" dir="s" state="M"/>
    <connection from=":J12_6" to="E7" fromLane="1" toLane="1" dir="s" state="M"/>
    <connection from=":J12_6" to="E7" fromLane="2" toLane="2" dir="s" state="M"/>
    <connection from=":J13_0" to="E8" fromLane="0" toLane="0" dir="r" state="M"/>
    <connection from=":J13_0" to="E8" fromLane="1" toLane="1" dir="r" state="M"/>
    <connection from=":J13_0" to="E8" fromLane="2" toLane="2" dir="r" state="M"/>
    <connection from=":J13_3" to="E30" fromLane="0" toLane="0" dir="r" state="M"/>
    <connection from=":J13_3" to="E30" fromLane="1" toLane="1" dir="r" state="M"/>
    <connection from=":J13_3" to="E30" fromLane="2" toLane="2" dir="r" state="M"/>
    <connection from=":J13_6" to="E8" fromLane="0" toLane="0" dir="s" state="M"/>
    <connection from=":J13_6" to="E8" fromLane="1" toLane="1" dir="s" state="M"/>
    <connection from=":J13_6" to="E8" fromLane="2" toLane="2" dir="s" state="M"/>
    <connection from=":J14_0" to="-E00" fromLane="0" toLane="0" dir="r" state="M"/>
    <connection from=":J14_0" to="-E00" fromLane="1" toLane="1" dir="r" state="M"/>
    <connection from=":J14_0" to="-E00" fromLane="2" toLane="2" dir="r" state="M"/>
    <connection from=":J14_3" to="E9" fromLane="0" toLane="0" dir="s" state="M"/>
    <connection from=":J14_3" to="E9" fromLane="1" toLane="1" dir="s" state="M"/>
    <connection from=":J14_3" to="E9" fromLane="2" toLane="2" dir="s" state="M"/>
    <connection from=":J14_6" to="E9" fromLane="0" toLane="0" dir="r" state="M"/>
    <connection from=":J14_6" to="E9" fromLane="1" toLane="1" dir="r" state="M"/>
    <connection from=":J14_6" to="E9" fromLane="2" toLane="2" dir="r" state="M"/>

    <roundabout nodes="J11 J12 J13 J14" edges="E11 E7 E8 E9"/>

</net>
